<?xml version="1.0" encoding="UTF-8"?>

<!-- generated on mié 19 feb 2020 13:05:21 CET by Eclipse SUMO netedit Version 1.0.1
<configuration xmlns:xsi="http://www.w3.org/2001/XMLSchema-instance" xsi:noNamespaceSchemaLocation="http://sumo.dlr.de/xsd/netconvertConfiguration.xsd">

    <input>
        <sumo-net-file value="/opt/veins/veins/examples/veins/eixample.net.xml"/>
    </input>

    <output>
        <output-file value="/opt/veins/veins/examples/veins/eixample.net.xml"/>
    </output>

    <processing>
        <offset.disable-normalization value="true"/>
        <lefthand value="false"/>
    </processing>

    <junctions>
        <no-turnarounds value="true"/>
        <junctions.corner-detail value="5"/>
        <junctions.limit-turn-speed value="-1"/>
        <rectangular-lane-cut value="true"/>
    </junctions>

    <pedestrian>
        <walkingareas value="false"/>
    </pedestrian>

</configuration>
-->

<additional xmlns:xsi="http://www.w3.org/2001/XMLSchema-instance" xsi:noNamespaceSchemaLocation="http://sumo.dlr.de/xsd/additional_file.xsd">
    <poly id="103348964" type="water" color="181,209,209" fill="1" layer="-4.00" shape="697.540000,747.960000 638.880000,807.820000 641.680000,810.560000 675.480000,776.070000 685.840000,786.530000 652.000000,820.590000 660.250000,828.610000 672.750000,814.760000 682.430000,801.910000 692.000000,786.000000 696.680000,775.860000 697.540000,747.960000"/>
    <poly id="103348968" type="amenity" color="237,199,199" fill="1" layer="-1.00" shape="638.150000,814.250000 603.700000,848.820000 611.600000,856.590000 641.090000,826.620000 646.040000,821.590000 638.150000,814.250000"/>
    <poly id="103348968#1" type="building" color="255,230,230" fill="1" layer="-1.00" shape="638.150000,814.250000 603.700000,848.820000 611.600000,856.590000 641.090000,826.620000 646.040000,821.590000 638.150000,814.250000"/>
    <poly id="103348983" type="water" color="181,209,209" fill="1" layer="-4.00" shape="635.270000,811.470000 583.350000,865.080000 577.950000,870.650000 603.830000,870.210000 619.140000,862.220000 631.870000,853.870000 643.850000,844.470000 656.210000,832.740000 648.000000,824.740000 613.400000,860.500000 602.430000,849.900000 638.030000,814.170000 635.270000,811.470000"/>
    <poly id="120328526" type="tourism" color="207,245,201" fill="1" layer="-2.00" shape="1807.410000,674.070000 1842.580000,708.300000 1817.700000,733.440000 1819.640000,735.620000 1807.160000,748.640000 1795.370000,736.970000 1797.930000,734.380000 1804.490000,727.660000 1788.670000,712.430000 1810.860000,689.610000 1801.000000,680.350000 1802.640000,678.530000 1807.410000,674.070000"/>
    <poly id="120328526#1" type="tourism" color="207,245,201" fill="1" layer="-2.00" shape="1807.410000,674.070000 1842.580000,708.300000 1817.700000,733.440000 1819.640000,735.620000 1807.160000,748.640000 1795.370000,736.970000 1797.930000,734.380000 1804.490000,727.660000 1788.670000,712.430000 1810.860000,689.610000 1801.000000,680.350000 1802.640000,678.530000 1807.410000,674.070000"/>
    <poly id="120328527" type="leisure" color="207,245,201" fill="1" layer="-2.00" shape="1814.810000,716.360000 1827.060000,703.680000 1834.920000,711.220000 1822.680000,723.900000 1814.810000,716.360000"/>
    <poly id="123116345" type="building" color="255,230,230" fill="1" layer="-1.00" shape="1282.520000,585.750000 1323.290000,540.920000 1323.110000,518.630000 1262.960000,460.140000 1243.190000,460.250000 1181.990000,520.270000 1182.210000,542.870000 1282.520000,585.750000"/>
    <poly id="123116381" type="building" color="255,230,230" fill="1" layer="-1.00" shape="1348.880000,450.960000 1383.480000,450.430000 1347.650000,483.910000 1308.870000,451.350000 1348.880000,450.960000"/>
    <poly id="123116398" type="building" color="255,230,230" fill="1" layer="-1.00" shape="1725.730000,447.720000 1760.330000,447.190000 1724.500000,480.670000 1685.710000,448.100000 1725.730000,447.720000"/>
    <poly id="123116409" type="building" color="255,230,230" fill="1" layer="-1.00" shape="1158.550000,452.810000 1193.160000,452.290000 1157.330000,485.770000 1118.530000,453.200000 1158.550000,452.810000"/>
    <poly id="123116413" type="building" color="255,230,230" fill="1" layer="-1.00" shape="1535.320000,445.130000 1569.930000,444.590000 1534.100000,478.070000 1520.070000,466.310000 1513.530000,460.820000 1495.300000,445.520000 1535.320000,445.130000"/>
    <poly id="123116414" type="building" color="255,230,230" fill="1" layer="-1.00" shape="1911.840000,444.540000 1946.440000,444.020000 1910.610000,477.500000 1871.820000,444.930000 1911.840000,444.540000"/>
    <poly id="123116429" type="building" color="255,230,230" fill="1" layer="-1.00" shape="1131.780000,522.240000 1084.340000,504.550000 1027.560000,483.390000 1050.740000,459.840000 1071.900000,460.760000 1131.780000,522.240000"/>
    <poly id="123116445" type="building" color="255,230,230" fill="1" layer="-1.00" shape="964.280000,510.130000 944.380000,491.640000 948.010000,487.950000 987.600000,502.780000 988.800000,506.810000 986.310000,509.730000 964.280000,510.130000"/>
    <poly id="123116446" type="building" color="255,230,230" fill="1" layer="-1.00" shape="1035.350000,430.930000 1035.420000,445.530000 1010.310000,475.280000 926.350000,442.550000 925.010000,437.730000 927.080000,433.130000 931.440000,432.290000 1035.350000,430.930000"/>
    <poly id="123116453" type="building" color="255,230,230" fill="1" layer="-1.00" shape="1419.340000,612.980000 1420.400000,626.990000 1415.500000,632.800000 1302.400000,589.030000 1337.030000,553.620000 1356.270000,553.060000 1419.340000,612.980000"/>
    <poly id="123119894" type="building" color="255,230,230" fill="1" layer="-1.00" shape="1357.000000,696.690000 1386.360000,666.190000 1386.580000,658.740000 1275.960000,614.460000 1276.180000,637.060000 1336.410000,697.190000 1357.000000,696.690000"/>
    <poly id="123119895" type="building" color="255,230,230" fill="1" layer="-1.00" shape="1452.780000,785.520000 1512.360000,725.240000 1511.860000,705.760000 1406.650000,664.230000 1371.730000,703.300000 1371.950000,725.900000 1432.180000,786.020000 1452.780000,785.520000"/>
    <poly id="123119906" type="building" color="255,230,230" fill="1" layer="-1.00" shape="335.680000,1077.900000 339.610000,1081.770000 354.250000,1096.150000 356.770000,1098.620000 368.210000,1087.070000 347.120000,1066.350000 335.680000,1077.900000"/>
    <poly id="123119906#1" type="tourism" color="207,245,201" fill="1" layer="-2.00" shape="335.680000,1077.900000 339.610000,1081.770000 354.250000,1096.150000 356.770000,1098.620000 368.210000,1087.070000 347.120000,1066.350000 335.680000,1077.900000"/>
    <poly id="123194575" type="building" color="255,230,230" fill="1" layer="-1.00" shape="717.340000,827.300000 709.700000,836.810000 696.220000,823.070000 705.420000,814.310000 717.340000,827.300000"/>
    <poly id="123194584" type="building" color="255,230,230" fill="1" layer="-1.00" shape="807.580000,682.110000 795.830000,670.350000 812.080000,653.890000 824.100000,665.580000 807.580000,682.110000"/>
    <poly id="123194587" type="building" color="255,230,230" fill="1" layer="-1.00" shape="694.960000,851.970000 709.700000,836.810000 719.410000,846.280000 705.300000,861.500000 694.960000,851.970000"/>
    <poly id="123194602" type="building" color="255,230,230" fill="1" layer="-1.00" shape="1690.040000,507.010000 1673.990000,527.380000 1643.760000,499.940000 1660.560000,477.440000 1690.040000,507.010000"/>
    <poly id="123194640" type="building" color="255,230,230" fill="1" layer="-1.00" shape="1209.720000,660.260000 1192.920000,645.110000 1208.860000,630.840000 1224.210000,646.250000 1209.720000,660.260000"/>
    <poly id="123194659" type="building" color="255,230,230" fill="1" layer="-1.00" shape="1394.960000,847.350000 1375.400000,829.140000 1387.610000,815.420000 1408.810000,835.600000 1398.450000,846.690000 1397.260000,845.460000 1394.960000,847.350000"/>
    <poly id="123194673" type="building" color="255,230,230" fill="1" layer="-1.00" shape="1884.130000,504.540000 1868.090000,524.920000 1837.860000,497.470000 1854.660000,474.970000 1884.130000,504.540000"/>
    <poly id="123194675" type="building" color="255,230,230" fill="1" layer="-1.00" shape="1414.870000,796.410000 1401.900000,809.830000 1399.170000,812.660000 1395.320000,809.070000 1386.780000,801.120000 1402.980000,784.290000 1414.870000,796.410000"/>
    <poly id="123194682" type="building" color="255,230,230" fill="1" layer="-1.00" shape="1215.730000,713.150000 1208.680000,721.660000 1204.080000,717.870000 1187.770000,704.580000 1195.030000,696.600000 1215.730000,713.150000"/>
    <poly id="123194691" type="building" color="255,230,230" fill="1" layer="-1.00" shape="1224.370000,796.600000 1208.320000,816.980000 1178.090000,789.540000 1194.880000,767.040000 1224.370000,796.600000"/>
    <poly id="123194699" type="building" color="255,230,230" fill="1" layer="-1.00" shape="901.600000,822.570000 902.400000,835.400000 887.340000,820.480000 893.280000,814.320000 901.600000,822.570000"/>
    <poly id="123194704" type="building" color="255,230,230" fill="1" layer="-1.00" shape="1089.990000,637.640000 1104.730000,622.480000 1114.440000,631.950000 1100.330000,647.170000 1089.990000,637.640000"/>
    <poly id="123194717" type="building" color="255,230,230" fill="1" layer="-1.00" shape="1004.390000,1297.350000 996.760000,1306.860000 983.280000,1293.120000 992.470000,1284.370000 1004.390000,1297.350000"/>
    <poly id="123194760" type="building" color="255,230,230" fill="1" layer="-1.00" shape="622.950000,923.360000 615.310000,932.870000 601.830000,919.140000 611.020000,910.390000 622.950000,923.360000"/>
    <poly id="123194764" type="building" color="255,230,230" fill="1" layer="-1.00" shape="1091.420000,823.680000 1106.570000,810.840000 1116.280000,820.330000 1102.170000,835.540000 1095.280000,828.170000 1091.420000,823.680000"/>
    <poly id="123194767" type="building" color="255,230,230" fill="1" layer="-1.00" shape="1000.280000,735.770000 1015.520000,718.640000 1021.160000,725.960000 1006.670000,741.820000 1004.100000,739.680000 1000.280000,735.770000"/>
    <poly id="123194772" type="building" color="255,230,230" fill="1" layer="-1.00" shape="715.420000,638.500000 721.490000,644.840000 717.280000,649.260000 720.690000,652.620000 718.340000,655.190000 708.090000,647.720000 695.660000,634.560000 699.480000,630.670000 704.060000,626.020000 715.420000,638.500000"/>
    <poly id="123194772#1" type="tourism" color="207,245,201" fill="1" layer="-2.00" shape="715.420000,638.500000 721.490000,644.840000 717.280000,649.260000 720.690000,652.620000 718.340000,655.190000 708.090000,647.720000 695.660000,634.560000 699.480000,630.670000 704.060000,626.020000 715.420000,638.500000"/>
    <poly id="123194779" type="building" color="255,230,230" fill="1" layer="-1.00" shape="745.420000,812.390000 735.140000,821.360000 718.260000,802.250000 727.450000,793.680000 745.420000,812.390000"/>
    <poly id="123194785" type="building" color="255,230,230" fill="1" layer="-1.00" shape="1697.880000,695.340000 1676.420000,717.800000 1646.190000,690.360000 1666.960000,665.530000 1697.880000,695.340000"/>
    <poly id="123194798" type="building" color="255,230,230" fill="1" layer="-1.00" shape="916.090000,1336.670000 901.880000,1315.650000 910.790000,1306.490000 916.460000,1312.030000 925.700000,1326.680000 916.090000,1336.670000"/>
    <poly id="123194807" type="building" color="255,230,230" fill="1" layer="-1.00" shape="1678.130000,610.390000 1672.360000,616.110000 1668.860000,619.570000 1656.700000,606.590000 1665.690000,598.060000 1678.130000,610.390000"/>
    <poly id="123194823" type="building" color="255,230,230" fill="1" layer="-1.00" shape="1773.980000,509.260000 1766.330000,518.770000 1752.860000,505.030000 1762.060000,496.280000 1773.980000,509.260000"/>
    <poly id="123194828" type="building" color="255,230,230" fill="1" layer="-1.00" shape="1014.650000,658.990000 1001.170000,646.220000 1017.120000,631.950000 1030.940000,644.960000 1014.650000,658.990000"/>
    <poly id="123194845" type="building" color="255,230,230" fill="1" layer="-1.00" shape="921.830000,728.280000 904.990000,746.030000 902.740000,748.600000 869.660000,716.840000 888.970000,696.720000 896.780000,704.350000 909.630000,717.140000 917.040000,724.290000 921.830000,728.280000"/>
    <poly id="123194849" type="building" color="255,230,230" fill="1" layer="-1.00" shape="1792.770000,605.030000 1779.440000,618.440000 1773.350000,612.320000 1767.910000,606.860000 1764.030000,602.950000 1763.090000,603.800000 1758.860000,599.780000 1754.600000,604.070000 1750.470000,600.060000 1746.310000,596.020000 1741.580000,591.410000 1759.640000,573.300000 1792.770000,605.030000"/>
    <poly id="123194854" type="building" color="255,230,230" fill="1" layer="-1.00" shape="1211.570000,848.630000 1194.760000,833.490000 1210.700000,819.220000 1226.060000,834.630000 1211.570000,848.630000"/>
    <poly id="123194860" type="building" color="255,230,230" fill="1" layer="-1.00" shape="929.690000,807.660000 919.410000,816.640000 905.750000,801.410000 915.790000,791.010000 929.690000,807.660000"/>
    <poly id="123194884" type="building" color="255,230,230" fill="1" layer="-1.00" shape="1271.700000,1310.140000 1275.790000,1314.120000 1276.200000,1314.500000 1277.720000,1315.980000 1278.710000,1316.960000 1279.470000,1317.700000 1281.260000,1319.450000 1282.670000,1320.810000 1283.260000,1321.400000 1285.180000,1323.270000 1287.210000,1325.240000 1290.230000,1328.170000 1295.020000,1323.160000 1300.110000,1318.080000 1294.070000,1313.990000 1293.320000,1314.800000 1292.390000,1315.860000 1290.470000,1313.950000 1291.910000,1312.530000 1291.060000,1311.950000 1286.110000,1308.610000 1283.430000,1306.800000 1282.840000,1306.400000 1282.070000,1305.860000 1278.280000,1303.300000 1273.580000,1300.080000 1268.620000,1296.700000 1263.390000,1302.020000 1271.070000,1309.520000 1271.700000,1310.140000"/>
    <poly id="123194885" type="building" color="255,230,230" fill="1" layer="-1.00" shape="365.730000,816.030000 355.460000,825.010000 345.320000,815.640000 354.520000,806.360000 365.730000,816.030000"/>
    <poly id="123194896" type="building" color="255,230,230" fill="1" layer="-1.00" shape="651.020000,908.450000 640.750000,917.440000 623.860000,898.320000 633.050000,889.750000 651.020000,908.450000"/>
    <poly id="123194900" type="building" color="255,230,230" fill="1" layer="-1.00" shape="1114.220000,801.330000 1106.570000,810.840000 1094.700000,800.730000 1098.010000,797.580000 1104.020000,791.850000 1114.220000,801.330000"/>
    <poly id="123194901" type="building" color="255,230,230" fill="1" layer="-1.00" shape="1020.630000,704.080000 1015.520000,718.640000 1000.740000,704.790000 1008.710000,691.110000 1020.630000,704.080000"/>
    <poly id="123194921" type="building" color="255,230,230" fill="1" layer="-1.00" shape="1189.940000,1300.410000 1192.090000,1298.340000 1189.880000,1296.250000 1188.660000,1295.080000 1183.630000,1290.280000 1182.320000,1289.030000 1180.320000,1291.170000 1177.390000,1288.480000 1173.600000,1292.510000 1169.440000,1296.710000 1183.330000,1309.720000 1191.400000,1301.740000 1189.940000,1300.410000"/>
    <poly id="123194941" type="building" color="255,230,230" fill="1" layer="-1.00" shape="1874.800000,605.840000 1868.040000,612.760000 1852.170000,597.570000 1859.120000,590.390000 1874.800000,605.840000"/>
    <poly id="123194947" type="building" color="255,230,230" fill="1" layer="-1.00" shape="1706.840000,592.790000 1704.900000,594.420000 1695.390000,602.430000 1679.470000,583.940000 1688.770000,574.520000 1706.840000,592.790000"/>
    <poly id="123194955" type="building" color="255,230,230" fill="1" layer="-1.00" shape="818.570000,926.440000 806.590000,939.830000 790.060000,918.940000 800.540000,908.250000 818.570000,926.440000"/>
    <poly id="123194959" type="building" color="255,230,230" fill="1" layer="-1.00" shape="1306.900000,689.250000 1292.590000,703.390000 1286.550000,709.360000 1278.480000,701.260000 1291.390000,688.510000 1298.830000,681.150000 1306.900000,689.250000"/>
    <poly id="123194964" type="building" color="255,230,230" fill="1" layer="-1.00" shape="976.290000,940.410000 990.350000,927.150000 1000.060000,936.620000 987.160000,951.220000 976.290000,940.410000"/>
    <poly id="123194976" type="building" color="255,230,230" fill="1" layer="-1.00" shape="1802.060000,494.360000 1791.780000,503.340000 1774.900000,484.210000 1784.090000,475.650000 1802.060000,494.360000"/>
    <poly id="123194981" type="building" color="255,230,230" fill="1" layer="-1.00" shape="1603.980000,792.170000 1582.950000,813.930000 1552.720000,786.490000 1574.110000,763.070000 1576.940000,765.920000 1579.010000,765.900000 1600.280000,786.360000 1600.060000,788.670000 1603.980000,792.170000"/>
    <poly id="123194986" type="building" color="255,230,230" fill="1" layer="-1.00" shape="1583.740000,652.820000 1566.930000,637.660000 1582.870000,623.390000 1598.230000,638.800000 1583.740000,652.820000"/>
    <poly id="123194992" type="building" color="255,230,230" fill="1" layer="-1.00" shape="992.700000,541.070000 1007.440000,525.900000 1017.040000,535.410000 1003.040000,550.600000 992.700000,541.070000"/>
    <poly id="123194998" type="building" color="255,230,230" fill="1" layer="-1.00" shape="540.500000,916.760000 524.460000,937.130000 494.230000,909.690000 511.020000,887.190000 540.500000,916.760000"/>
    <poly id="123195004" type="building" color="255,230,230" fill="1" layer="-1.00" shape="1486.380000,605.510000 1478.740000,615.020000 1465.270000,601.280000 1474.460000,592.520000 1486.380000,605.510000"/>
    <poly id="123195010" type="building" color="255,230,230" fill="1" layer="-1.00" shape="1389.910000,514.750000 1394.340000,528.800000 1376.660000,512.840000 1381.460000,505.970000 1389.910000,514.750000"/>
    <poly id="123195012" type="building" color="255,230,230" fill="1" layer="-1.00" shape="733.250000,916.480000 719.130000,931.620000 686.820000,911.570000 703.610000,889.060000 733.250000,916.480000"/>
    <poly id="123195016" type="building" color="255,230,230" fill="1" layer="-1.00" shape="936.510000,513.300000 925.840000,524.950000 892.910000,485.200000 899.960000,477.990000 936.510000,513.300000"/>
    <poly id="123195020" type="building" color="255,230,230" fill="1" layer="-1.00" shape="1557.490000,536.400000 1572.230000,521.240000 1581.940000,530.710000 1567.840000,545.940000 1557.490000,536.400000"/>
    <poly id="123195027" type="building" color="255,230,230" fill="1" layer="-1.00" shape="905.380000,642.260000 918.420000,628.500000 929.460000,637.890000 916.050000,652.320000 910.900000,647.830000 905.380000,642.260000"/>
    <poly id="123195030" type="building" color="255,230,230" fill="1" layer="-1.00" shape="1956.800000,500.450000 1949.150000,509.960000 1940.680000,500.650000 1949.090000,492.360000 1956.800000,500.450000"/>
    <poly id="123195038" type="building" color="255,230,230" fill="1" layer="-1.00" shape="1934.410000,525.120000 1949.150000,509.960000 1958.860000,519.430000 1944.760000,534.660000 1934.410000,525.120000"/>
    <poly id="123195045" type="building" color="255,230,230" fill="1" layer="-1.00" shape="1100.760000,1338.340000 1080.690000,1318.600000 1089.240000,1309.160000 1109.790000,1329.150000 1100.760000,1338.340000"/>
    <poly id="123195074" type="building" color="255,230,230" fill="1" layer="-1.00" shape="833.130000,912.610000 825.710000,919.580000 807.200000,901.470000 814.130000,894.410000 833.130000,912.610000"/>
    <poly id="123195080" type="building" color="255,230,230" fill="1" layer="-1.00" shape="1861.920000,743.340000 1845.100000,726.670000 1853.370000,718.140000 1859.400000,724.160000 1867.600000,715.940000 1878.750000,726.690000 1861.920000,743.340000"/>
    <poly id="123195087" type="building" color="255,230,230" fill="1" layer="-1.00" shape="1488.840000,798.270000 1481.200000,807.790000 1468.080000,794.480000 1468.320000,792.590000 1470.580000,791.030000 1473.110000,790.720000 1476.660000,786.890000 1477.290000,786.860000 1488.840000,798.270000"/>
    <poly id="123195092" type="building" color="255,230,230" fill="1" layer="-1.00" shape="1308.820000,743.840000 1289.780000,725.520000 1288.630000,724.410000 1296.030000,716.780000 1301.230000,721.780000 1316.210000,736.210000 1308.820000,743.840000"/>
    <poly id="123195119" type="building" color="255,230,230" fill="1" layer="-1.00" shape="787.660000,758.960000 802.410000,743.790000 812.120000,753.260000 798.010000,768.480000 787.660000,758.960000"/>
    <poly id="123195132" type="building" color="255,230,230" fill="1" layer="-1.00" shape="430.350000,921.490000 422.710000,931.010000 409.240000,917.270000 418.430000,908.520000 430.350000,921.490000"/>
    <poly id="123195143" type="building" color="255,230,230" fill="1" layer="-1.00" shape="1776.690000,699.970000 1768.840000,708.410000 1756.270000,696.510000 1764.640000,688.050000 1776.690000,699.970000"/>
    <poly id="123195163" type="building" color="255,230,230" fill="1" layer="-1.00" shape="447.810000,826.200000 431.770000,846.580000 401.530000,819.140000 418.320000,796.640000 447.810000,826.200000"/>
    <poly id="123195171" type="building" color="255,230,230" fill="1" layer="-1.00" shape="1468.770000,1344.340000 1448.410000,1324.110000 1464.870000,1307.000000 1472.210000,1314.060000 1479.260000,1306.610000 1492.640000,1319.760000 1468.770000,1344.340000"/>
    <poly id="123195173" type="building" color="255,230,230" fill="1" layer="-1.00" shape="1130.780000,699.350000 1114.740000,719.730000 1084.510000,692.290000 1101.310000,669.790000 1130.780000,699.350000"/>
    <poly id="123195181" type="building" color="255,230,230" fill="1" layer="-1.00" shape="1011.740000,815.760000 993.170000,832.130000 988.750000,836.950000 977.930000,825.610000 962.600000,808.850000 982.270000,788.270000 987.140000,793.410000 992.800000,798.680000 999.920000,805.120000 1006.630000,811.160000 1011.740000,815.760000"/>
    <poly id="123195182" type="building" color="255,230,230" fill="1" layer="-1.00" shape="887.240000,853.290000 902.400000,835.400000 903.680000,841.570000 890.190000,856.180000 887.240000,853.290000"/>
    <poly id="123195189" type="building" color="255,230,230" fill="1" layer="-1.00" shape="1514.460000,590.590000 1504.190000,599.570000 1487.290000,580.460000 1496.490000,571.890000 1514.460000,590.590000"/>
    <poly id="123195190" type="building" color="255,230,230" fill="1" layer="-1.00" shape="1110.560000,912.870000 1092.100000,933.280000 1061.860000,905.840000 1078.920000,882.800000 1082.930000,886.470000 1090.110000,893.230000 1096.570000,899.470000 1105.260000,908.040000 1110.560000,912.870000"/>
    <poly id="123195197" type="building" color="255,230,230" fill="1" layer="-1.00" shape="1418.000000,499.840000 1407.730000,508.810000 1394.300000,493.910000 1403.500000,485.350000 1418.000000,499.840000"/>
    <poly id="123195208" type="building" color="255,230,230" fill="1" layer="-1.00" shape="1677.240000,559.040000 1660.420000,543.890000 1676.370000,529.620000 1691.720000,545.030000 1677.240000,559.040000"/>
    <poly id="123195217" type="building" color="255,230,230" fill="1" layer="-1.00" shape="1382.660000,1296.860000 1378.440000,1300.760000 1368.140000,1290.940000 1372.220000,1286.690000 1382.660000,1296.860000"/>
    <poly id="123195225" type="building" color="255,230,230" fill="1" layer="-1.00" shape="600.570000,948.040000 615.310000,932.870000 625.020000,942.350000 610.910000,957.580000 600.570000,948.040000"/>
    <poly id="123195228" type="building" color="255,230,230" fill="1" layer="-1.00" shape="1366.160000,1321.950000 1378.910000,1309.110000 1382.040000,1305.950000 1386.130000,1309.940000 1370.310000,1326.050000 1366.160000,1321.950000"/>
    <poly id="123195247" type="building" color="255,230,230" fill="1" layer="-1.00" shape="1093.300000,542.150000 1067.990000,532.000000 1060.660000,547.230000 1086.870000,556.390000 1093.300000,542.150000"/>
    <poly id="123195267" type="building" color="255,230,230" fill="1" layer="-1.00" shape="1579.880000,511.730000 1572.230000,521.240000 1558.760000,507.500000 1567.960000,498.750000 1579.880000,511.730000"/>
    <poly id="123195270" type="building" color="255,230,230" fill="1" layer="-1.00" shape="1871.330000,556.570000 1855.220000,540.630000 1870.470000,527.160000 1885.820000,542.570000 1871.330000,556.570000"/>
    <poly id="123195277" type="building" color="255,230,230" fill="1" layer="-1.00" shape="823.030000,630.990000 808.460000,650.130000 777.550000,625.190000 794.200000,602.820000 801.640000,610.560000 811.650000,620.260000 819.140000,627.970000 823.030000,630.990000"/>
    <poly id="123195279" type="building" color="255,230,230" fill="1" layer="-1.00" shape="1656.980000,631.850000 1668.860000,619.570000 1672.360000,616.110000 1681.050000,624.470000 1678.400000,627.040000 1665.560000,640.360000 1656.980000,631.850000"/>
    <poly id="123195286" type="building" color="255,230,230" fill="1" layer="-1.00" shape="1516.930000,783.370000 1506.650000,792.350000 1489.760000,773.230000 1498.580000,764.430000 1516.930000,783.370000"/>
    <poly id="123195294" type="building" color="255,230,230" fill="1" layer="-1.00" shape="1112.360000,612.970000 1104.730000,622.480000 1091.250000,608.740000 1100.440000,599.980000 1112.360000,612.970000"/>
    <poly id="123195307" type="building" color="255,230,230" fill="1" layer="-1.00" shape="1032.480000,1282.440000 1022.200000,1291.420000 1005.310000,1272.300000 1014.510000,1263.740000 1032.480000,1282.440000"/>
    <poly id="123195325" type="building" color="255,230,230" fill="1" layer="-1.00" shape="693.460000,662.960000 708.090000,647.720000 718.340000,655.190000 702.580000,671.910000 693.460000,662.960000"/>
    <poly id="123195349" type="building" color="255,230,230" fill="1" layer="-1.00" shape="1751.590000,533.940000 1766.330000,518.770000 1776.040000,528.260000 1761.930000,543.470000 1751.590000,533.940000"/>
    <poly id="123195357" type="building" color="255,230,230" fill="1" layer="-1.00" shape="458.430000,906.580000 448.160000,915.570000 431.260000,896.450000 440.460000,887.880000 458.430000,906.580000"/>
    <poly id="123195362" type="building" color="255,230,230" fill="1" layer="-1.00" shape="1794.570000,686.630000 1787.140000,694.410000 1772.510000,679.770000 1780.230000,672.020000 1794.570000,686.630000"/>
    <poly id="123195384" type="building" color="255,230,230" fill="1" layer="-1.00" shape="1676.820000,746.850000 1662.860000,734.300000 1678.800000,720.050000 1690.820000,732.540000 1676.820000,746.850000"/>
    <poly id="123195390" type="building" color="255,230,230" fill="1" layer="-1.00" shape="1117.990000,751.390000 1101.180000,736.240000 1117.120000,721.970000 1132.480000,737.380000 1117.990000,751.390000"/>
    <poly id="123195400" type="building" color="255,230,230" fill="1" layer="-1.00" shape="998.620000,869.330000 982.150000,854.720000 999.370000,838.620000 1014.910000,852.450000 998.620000,869.330000"/>
    <poly id="123195405" type="building" color="255,230,230" fill="1" layer="-1.00" shape="1093.360000,963.000000 1078.530000,949.780000 1094.480000,935.510000 1107.440000,948.600000 1093.360000,963.000000"/>
    <poly id="123195427" type="building" color="255,230,230" fill="1" layer="-1.00" shape="435.010000,878.230000 418.200000,863.090000 434.150000,848.820000 449.500000,864.220000 435.010000,878.230000"/>
    <poly id="123195432" type="building" color="255,230,230" fill="1" layer="-1.00" shape="1405.650000,1286.040000 1401.580000,1290.310000 1384.750000,1274.120000 1388.940000,1269.820000 1405.650000,1286.040000"/>
    <poly id="123195434" type="building" color="255,230,230" fill="1" layer="-1.00" shape="1586.240000,702.930000 1577.590000,711.980000 1563.210000,698.330000 1563.140000,696.030000 1565.030000,693.350000 1567.370000,691.500000 1569.840000,691.780000 1572.940000,689.470000 1586.240000,702.930000"/>
    <poly id="123195441" type="building" color="255,230,230" fill="1" layer="-1.00" shape="1950.800000,578.530000 1937.020000,592.680000 1927.350000,583.220000 1941.200000,569.070000 1950.800000,578.530000"/>
    <poly id="123195442" type="building" color="255,230,230" fill="1" layer="-1.00" shape="1563.660000,725.350000 1577.590000,711.980000 1584.380000,721.140000 1573.830000,735.290000 1563.660000,725.350000"/>
    <poly id="123195457" type="building" color="255,230,230" fill="1" layer="-1.00" shape="997.990000,917.630000 990.350000,927.150000 980.620000,915.720000 989.540000,906.640000 997.990000,917.630000"/>
    <poly id="123195460" type="building" color="255,230,230" fill="1" layer="-1.00" shape="948.710000,599.150000 938.440000,608.130000 921.540000,589.010000 930.740000,580.450000 948.710000,599.150000"/>
    <poly id="123195474" type="building" color="255,230,230" fill="1" layer="-1.00" shape="922.390000,914.980000 902.690000,935.150000 871.810000,907.400000 893.350000,886.700000 922.390000,914.980000"/>
    <poly id="123195493" type="amenity" color="237,199,199" fill="1" layer="-1.00" shape="1607.960000,496.820000 1601.910000,502.110000 1597.690000,505.790000 1580.800000,486.680000 1584.860000,482.900000 1590.000000,478.120000 1607.960000,496.820000"/>
    <poly id="123195493#1" type="building" color="255,230,230" fill="1" layer="-1.00" shape="1607.960000,496.820000 1601.910000,502.110000 1597.690000,505.790000 1580.800000,486.680000 1584.860000,482.900000 1590.000000,478.120000 1607.960000,496.820000"/>
    <poly id="123195502" type="building" color="255,230,230" fill="1" layer="-1.00" shape="1843.200000,621.940000 1852.800000,611.640000 1861.360000,619.610000 1849.130000,632.360000 1843.280000,626.760000 1843.200000,621.940000"/>
    <poly id="123195511" type="building" color="255,230,230" fill="1" layer="-1.00" shape="1030.790000,609.330000 1014.750000,629.720000 984.500000,602.270000 1001.300000,579.760000 1030.790000,609.330000"/>