<?xml version="1.0" encoding="UTF-8"?>

<configuration xmlns:xsi="http://www.w3.org/2001/XMLSchema-instance" xsi:noNamespaceSchemaLocation="http://sumo.sf.net/xsd/sumoConfiguration.xsd">
    <input>
        <net-file value="bcn.net.xml"/>
        <route-files value="bcn.rou.xml"/>
        <additional-files value="bcn.poly.xml"/>
    </input>
    <processing>
        <time-to-teleport value="1000"/>
        <time-to-teleport.highways value="0"/>
    </processing>
    <time>
        <begin value="0"/>
        <end value="10000"/>
        <step-length value="1"/>
    </time>
</configuration>