<?xml version="1.0" encoding="UTF-8"?>

<!-- generated on jue 19 dic 2019 12:41:52 CET by Netedit Version 0.32.0
<?xml version="1.0" encoding="UTF-8"?>

<configuration xmlns:xsi="http://www.w3.org/2001/XMLSchema-instance" xsi:noNamespaceSchemaLocation="http://sumo.dlr.de/xsd/netconvertConfiguration.xsd">

    <input>
        <sumo-net-file value="/root/Documents/RESULTS/2hGAR/Dropbox/SUMO_MAP/eixample.net.xml"/>
    </input>

    <output>
        <output-file value="/root/Documents/RESULTS/2hGAR/Dropbox/SUMO_MAP/eixample.net.xml"/>
    </output>

    <processing>
        <no-turnarounds value="true"/>
        <offset.disable-normalization value="true"/>
        <lefthand value="false"/>
        <junctions.corner-detail value="5"/>
        <rectangular-lane-cut value="true"/>
        <walkingareas value="false"/>
    </processing>

</configuration>
-->

<net version="0.27" junctionCornerDetail="5" rectangularLaneCut="true" xmlns:xsi="http://www.w3.org/2001/XMLSchema-instance" xsi:noNamespaceSchemaLocation="http://sumo.dlr.de/xsd/net_file.xsd">

    <location netOffset="-428206.67,-4580321.61" convBoundary="0.00,0.00,2208.87,1884.49" origBoundary="2.099486,41.344541,2.187809,41.450020" projParameter="+proj=utm +zone=31 +ellps=WGS84 +datum=WGS84 +units=m +no_defs"/>

    <type id="highway.bridleway" priority="1" numLanes="1" speed="2.78" allow="pedestrian" oneway="1" width="2.00"/>
    <type id="highway.bus_guideway" priority="1" numLanes="1" speed="27.78" allow="bus" oneway="1"/>
    <type id="highway.cycleway" priority="1" numLanes="1" speed="8.33" allow="bicycle" oneway="0" width="1.00"/>
    <type id="highway.footway" priority="1" numLanes="1" speed="2.78" allow="pedestrian" oneway="1" width="2.00"/>
    <type id="highway.ford" priority="1" numLanes="1" speed="2.78" allow="army" oneway="0"/>
    <type id="highway.living_street" priority="2" numLanes="1" speed="2.78" disallow="tram rail_urban rail rail_electric ship" oneway="0"/>
    <type id="highway.motorway" priority="14" numLanes="2" speed="39.44" allow="private emergency authority army vip passenger hov taxi bus coach delivery truck trailer motorcycle evehicle custom1 custom2" oneway="1"/>
    <type id="highway.motorway_link" priority="9" numLanes="1" speed="22.22" allow="private emergency authority army vip passenger hov taxi bus coach delivery truck trailer motorcycle evehicle custom1 custom2" oneway="1"/>
    <type id="highway.path" priority="1" numLanes="1" speed="2.78" allow="bicycle pedestrian" oneway="1" width="2.00"/>
    <type id="highway.pedestrian" priority="1" numLanes="1" speed="2.78" allow="pedestrian" oneway="1" width="2.00"/>
    <type id="highway.primary" priority="12" numLanes="2" speed="27.78" disallow="tram rail_urban rail rail_electric ship" oneway="0"/>
    <type id="highway.primary_link" priority="7" numLanes="1" speed="22.22" disallow="tram rail_urban rail rail_electric ship" oneway="0"/>
    <type id="highway.raceway" priority="15" numLanes="2" speed="83.33" allow="vip" oneway="0"/>
    <type id="highway.residential" priority="3" numLanes="1" speed="13.89" disallow="tram rail_urban rail rail_electric ship" oneway="0"/>
    <type id="highway.secondary" priority="11" numLanes="2" speed="27.78" disallow="tram rail_urban rail rail_electric ship" oneway="0"/>
    <type id="highway.secondary_link" priority="6" numLanes="1" speed="22.22" disallow="tram rail_urban rail rail_electric ship" oneway="0"/>
    <type id="highway.service" priority="1" numLanes="1" speed="5.56" allow="delivery bicycle pedestrian" oneway="0"/>
    <type id="highway.stairs" priority="1" numLanes="1" speed="1.39" allow="pedestrian" oneway="1" width="2.00"/>
    <type id="highway.step" priority="1" numLanes="1" speed="1.39" allow="pedestrian" oneway="1" width="2.00"/>
    <type id="highway.steps" priority="1" numLanes="1" speed="1.39" allow="pedestrian" oneway="1" width="2.00"/>
    <type id="highway.tertiary" priority="10" numLanes="1" speed="22.22" disallow="tram rail_urban rail rail_electric ship" oneway="0"/>
    <type id="highway.tertiary_link" priority="5" numLanes="1" speed="22.22" disallow="tram rail_urban rail rail_electric ship" oneway="0"/>
    <type id="highway.track" priority="1" numLanes="1" speed="5.56" disallow="tram rail_urban rail rail_electric ship" oneway="0"/>
    <type id="highway.trunk" priority="13" numLanes="2" speed="27.78" disallow="tram rail_urban rail rail_electric bicycle pedestrian ship" oneway="0"/>
    <type id="highway.trunk_link" priority="8" numLanes="1" speed="22.22" disallow="tram rail_urban rail rail_electric bicycle pedestrian ship" oneway="0"/>
    <type id="highway.unclassified" priority="4" numLanes="1" speed="13.89" disallow="tram rail_urban rail rail_electric ship" oneway="0"/>
    <type id="highway.unsurfaced" priority="1" numLanes="1" speed="8.33" disallow="tram rail_urban rail rail_electric ship" oneway="0"/>
    <type id="railway.light_rail" priority="19" numLanes="1" speed="27.78" allow="rail_urban" oneway="1"/>
    <type id="railway.preserved" priority="16" numLanes="1" speed="27.78" allow="rail" oneway="1"/>
    <type id="railway.rail" priority="20" numLanes="1" speed="83.33" allow="rail rail_electric" oneway="1"/>
    <type id="railway.subway" priority="18" numLanes="1" speed="27.78" allow="rail_urban" oneway="1"/>
    <type id="railway.tram" priority="17" numLanes="1" speed="13.89" allow="tram" oneway="1"/>

    <edge id=":1012330342_0" function="internal">
        <lane id=":1012330342_0_0" index="0" disallow="tram rail_urban rail rail_electric ship" speed="13.89" length="3.14" shape="252.04,1069.66 251.51,1070.39 251.39,1071.05 251.69,1071.65 252.41,1072.19"/>
    </edge>
    <edge id=":1043786305_0" function="internal">
        <lane id=":1043786305_0_0" index="0" disallow="tram rail_urban rail rail_electric ship" speed="13.89" length="0.28" shape="1909.39,706.13 1909.59,706.33"/>
    </edge>
    <edge id=":1043786348_0" function="internal">
        <lane id=":1043786348_0_0" index="0" disallow="tram rail_urban rail rail_electric ship" speed="13.89" length="0.25" shape="2001.43,611.95 2001.23,611.73"/>
        <lane id=":1043786348_0_1" index="1" disallow="tram rail_urban rail rail_electric ship" speed="13.89" length="0.25" shape="2003.78,609.63 2003.65,609.49"/>
    </edge>
    <edge id=":1043786431_0" function="internal">
        <lane id=":1043786431_0_0" index="0" disallow="tram rail_urban rail rail_electric ship" speed="18.05" length="5.01" shape="1641.81,994.11 1640.99,995.22 1640.73,996.32 1641.01,997.42 1641.84,998.50"/>
    </edge>
    <edge id=":1043786431_1" function="internal">
        <lane id=":1043786431_1_0" index="0" disallow="tram rail_urban rail rail_electric ship" speed="13.89" length="12.86" shape="1641.81,994.11 1632.71,1003.25"/>
        <lane id=":1043786431_1_1" index="1" disallow="tram rail_urban rail rail_electric ship" speed="13.89" length="12.86" shape="1639.44,991.80 1630.39,1000.90"/>
    </edge>
    <edge id=":1043786431_3" function="internal">
        <lane id=":1043786431_3_0" index="0" disallow="tram rail_urban rail rail_electric ship" speed="22.22" length="11.25" shape="1635.01,991.80 1636.73,994.21 1637.27,996.33 1637.81,998.44 1639.53,1000.86"/>
        <lane id=":1043786431_3_1" index="1" disallow="tram rail_urban rail rail_electric ship" speed="22.22" length="11.25" shape="1635.01,991.80 1636.52,994.73 1636.11,997.50 1635.71,1000.28 1637.22,1003.21"/>
    </edge>
    <edge id=":1043786431_5" function="internal">
        <lane id=":1043786431_5_0" index="0" disallow="tram rail_urban rail rail_electric ship" speed="18.05" length="10.41" shape="1632.70,994.16 1634.43,996.43 1635.02,998.70 1634.44,1000.97 1632.71,1003.25"/>
    </edge>
    <edge id=":1043786431_6" function="internal">
        <lane id=":1043786431_6_0" index="0" disallow="tram rail_urban rail rail_electric ship" speed="18.05" length="5.02" shape="1630.39,996.51 1631.23,997.61 1631.51,998.70 1631.23,999.80 1630.39,1000.90"/>
    </edge>
    <edge id=":1043786532_0" function="internal">
        <lane id=":1043786532_0_0" index="0" disallow="tram rail_urban rail rail_electric ship" speed="8.33" length="0.13" shape="1447.06,1179.62 1447.15,1179.71"/>
    </edge>
    <edge id=":1092685773_0" function="internal">
        <lane id=":1092685773_0_0" index="0" disallow="tram rail_urban rail rail_electric ship" speed="18.05" length="6.76" shape="1816.32,429.41 1815.19,428.10 1814.39,426.66 1813.90,425.08 1813.73,423.36"/>
    </edge>
    <edge id=":1092685773_1" function="internal">
        <lane id=":1092685773_1_0" index="0" disallow="tram rail_urban rail rail_electric ship" speed="18.05" length="4.12" shape="1818.61,427.04 1817.92,426.24 1817.43,425.36 1817.14,424.40 1817.03,423.35"/>
    </edge>
    <edge id=":1092685773_2" function="internal">
        <lane id=":1092685773_2_0" index="0" disallow="tram rail_urban rail rail_electric ship" speed="22.22" length="6.48" shape="1809.09,429.46 1810.16,427.95 1810.53,426.70 1810.51,425.31 1810.43,423.37"/>
    </edge>
    <edge id=":1121909708_0" function="internal">
        <lane id=":1121909708_0_0" index="0" disallow="tram rail_urban rail rail_electric ship" speed="13.89" length="0.26" shape="348.69,743.95 348.89,744.12"/>
    </edge>
    <edge id=":1121909724_0" function="internal">
        <lane id=":1121909724_0_0" index="0" disallow="tram rail_urban rail rail_electric ship" speed="13.89" length="5.93" shape="284.78,844.59 288.79,840.49"/>
        <lane id=":1121909724_0_1" index="1" disallow="tram rail_urban rail rail_electric ship" speed="13.89" length="5.93" shape="287.09,846.94 291.19,842.75"/>
        <lane id=":1121909724_0_2" index="2" disallow="tram rail_urban rail rail_electric ship" speed="13.89" length="5.93" shape="289.40,849.30 293.60,845.02"/>
        <lane id=":1121909724_0_3" index="3" disallow="tram rail_urban rail rail_electric ship" speed="13.89" length="5.93" shape="291.71,851.66 296.00,847.28"/>
    </edge>
    <edge id=":1121909724_4" function="internal">
        <lane id=":1121909724_4_0" index="0" disallow="tram rail_urban rail rail_electric ship" speed="18.05" length="5.00" shape="291.71,851.66 292.80,850.86 293.90,850.60 295.01,850.86 296.13,851.66"/>
    </edge>
    <edge id=":1121909747_0" function="internal">
        <lane id=":1121909747_0_0" index="0" disallow="tram rail_urban rail rail_electric ship" speed="8.33" length="0.29" shape="450.58,640.00 450.34,639.84"/>
    </edge>
    <edge id=":1121909767_0" function="internal">
        <lane id=":1121909767_0_0" index="0" disallow="tram rail_urban rail rail_electric ship" speed="13.89" length="0.30" shape="672.81,843.30 673.03,843.51"/>
        <lane id=":1121909767_0_1" index="1" disallow="tram rail_urban rail rail_electric ship" speed="13.89" length="0.30" shape="670.52,845.68 670.72,845.87"/>
    </edge>
    <edge id=":1121909838_0" function="internal">
        <lane id=":1121909838_0_0" index="0" disallow="tram rail_urban rail rail_electric ship" speed="8.33" length="0.10" shape="538.28,549.16 538.28,549.16"/>
    </edge>
    <edge id=":112399403_0" function="internal">
        <lane id=":112399403_0_0" index="0" disallow="tram rail_urban rail rail_electric ship" speed="18.05" length="8.79" shape="1881.05,1413.36 1880.83,1415.30 1879.67,1416.49 1877.58,1416.94 1874.56,1416.65"/>
    </edge>
    <edge id=":112405638_0" function="internal">
        <lane id=":112405638_0_0" index="0" disallow="tram rail_urban rail rail_electric ship" speed="13.89" length="0.31" shape="1854.63,1191.10 1854.59,1190.79"/>
    </edge>
    <edge id=":112405638_1" function="internal">
        <lane id=":112405638_1_0" index="0" disallow="tram rail_urban rail rail_electric ship" speed="13.89" length="0.27" shape="1857.88,1190.46 1857.91,1190.73"/>
    </edge>
    <edge id=":1193548819_0" function="internal">
        <lane id=":1193548819_0_0" index="0" disallow="tram rail_urban rail rail_electric ship" speed="13.89" length="0.28" shape="811.27,555.43 811.49,555.65"/>
        <lane id=":1193548819_0_1" index="1" disallow="tram rail_urban rail rail_electric ship" speed="13.89" length="0.28" shape="808.99,557.82 809.17,557.99"/>
    </edge>
    <edge id=":1193568097_0" function="internal">
        <lane id=":1193568097_0_0" index="0" disallow="tram rail_urban rail rail_electric ship" speed="16.67" length="0.10" shape="707.54,285.71 707.54,285.72"/>
    </edge>
    <edge id=":1193568097_1" function="internal">
        <lane id=":1193568097_1_0" index="0" disallow="tram rail_urban rail rail_electric ship" speed="16.67" length="0.10" shape="704.58,284.24 704.58,284.25"/>
    </edge>
    <edge id=":1349448332_0" function="internal">
        <lane id=":1349448332_0_0" index="0" disallow="tram rail_urban rail rail_electric ship" speed="13.89" length="0.25" shape="1995.43,605.48 1995.30,605.34"/>
        <lane id=":1349448332_0_1" index="1" disallow="tram rail_urban rail rail_electric ship" speed="13.89" length="0.25" shape="1997.85,603.24 1997.65,603.02"/>
    </edge>
    <edge id=":1349448851_0" function="internal">
        <lane id=":1349448851_0_0" index="0" disallow="tram rail_urban rail rail_electric ship" speed="13.89" length="0.24" shape="1987.69,636.85 1987.49,637.07"/>
        <lane id=":1349448851_0_1" index="1" disallow="tram rail_urban rail rail_electric ship" speed="13.89" length="0.24" shape="1985.25,634.63 1985.13,634.76"/>
    </edge>
    <edge id=":1349798816_0" function="internal">
        <lane id=":1349798816_0_0" index="0" disallow="tram rail_urban rail rail_electric ship" speed="13.89" length="0.10" shape="1779.09,656.34 1779.09,656.34"/>
    </edge>
    <edge id=":1362900009_0" function="internal">
        <lane id=":1362900009_0_0" index="0" disallow="tram rail_urban rail rail_electric ship" speed="13.89" length="0.22" shape="1238.05,1394.01 1238.29,1394.24"/>
        <lane id=":1362900009_0_1" index="1" disallow="tram rail_urban rail rail_electric ship" speed="13.89" length="0.22" shape="1235.80,1396.42 1235.88,1396.50"/>
    </edge>
    <edge id=":1374636407_0" function="internal">
        <lane id=":1374636407_0_0" index="0" disallow="tram rail_urban rail rail_electric ship" speed="18.05" length="6.59" shape="1831.26,1179.96 1830.54,1181.19 1830.53,1182.56 1831.22,1184.07 1832.60,1185.70"/>
    </edge>
    <edge id=":1374636407_1" function="internal">
        <lane id=":1374636407_1_0" index="0" disallow="tram rail_urban rail rail_electric ship" speed="13.89" length="13.02" shape="1831.26,1179.96 1829.28,1182.51 1827.87,1184.85 1826.24,1187.38 1823.60,1190.46"/>
    </edge>
    <edge id=":1374636407_2" function="internal">
        <lane id=":1374636407_2_0" index="0" disallow="tram rail_urban rail rail_electric ship" speed="22.22" length="9.50" shape="1825.82,1179.05 1832.60,1185.70"/>
        <lane id=":1374636407_2_1" index="1" disallow="tram rail_urban rail rail_electric ship" speed="22.22" length="9.50" shape="1823.51,1181.41 1830.29,1188.06"/>
        <lane id=":1374636407_2_2" index="2" disallow="tram rail_urban rail rail_electric ship" speed="22.22" length="9.50" shape="1821.20,1183.76 1827.98,1190.41"/>
    </edge>
    <edge id=":1374636407_5" function="internal">
        <lane id=":1374636407_5_0" index="0" disallow="tram rail_urban rail rail_electric ship" speed="18.05" length="5.00" shape="1821.20,1183.76 1822.03,1184.85 1822.32,1185.94 1822.05,1187.04 1821.24,1188.15"/>
    </edge>
    <edge id=":1374636541_0" function="internal">
        <lane id=":1374636541_0_0" index="0" disallow="tram rail_urban rail rail_electric ship" speed="13.89" length="20.91" shape="1858.25,1224.14 1855.99,1203.35"/>
    </edge>
    <edge id=":1374636541_1" function="internal">
        <lane id=":1374636541_1_0" index="0" disallow="tram rail_urban rail rail_electric ship" speed="13.89" length="6.97" shape="1865.15,1222.00 1863.35,1220.63 1862.14,1220.48 1861.53,1221.53 1861.53,1223.80"/>
    </edge>
    <edge id=":1374636541_2" function="internal">
        <lane id=":1374636541_2_0" index="0" disallow="tram rail_urban rail rail_electric ship" speed="13.89" length="21.00" shape="1865.15,1222.00 1862.26,1218.34 1859.41,1213.26 1857.14,1207.88 1855.99,1203.35"/>
    </edge>
    <edge id=":1374636541_3" function="internal">
        <lane id=":1374636541_3_0" index="0" disallow="tram rail_urban rail rail_electric ship" speed="13.89" length="20.93" shape="1859.27,1202.99 1861.53,1223.80"/>
    </edge>
    <edge id=":1374636541_4" function="internal">
        <lane id=":1374636541_4_0" index="0" disallow="tram rail_urban rail rail_electric ship" speed="18.05" length="7.15" shape="1852.38,1205.11 1854.21,1206.58 1855.42,1206.77 1856.02,1205.70 1855.99,1203.35"/>
    </edge>
    <edge id=":1374636541_5" function="internal">
        <lane id=":1374636541_5_0" index="0" disallow="tram rail_urban rail rail_electric ship" speed="18.05" length="20.30" shape="1850.06,1207.46 1854.79,1212.27 1858.27,1216.39 1860.52,1220.13 1861.53,1223.80"/>
    </edge>
    <edge id=":1479334732_0" function="internal">
        <lane id=":1479334732_0_0" index="0" disallow="tram rail_urban rail rail_electric ship" speed="22.22" length="6.20" shape="354.72,1160.68 349.42,1157.47"/>
    </edge>
    <edge id=":1479334732_1" function="internal">
        <lane id=":1479334732_1_0" index="0" disallow="tram rail_urban rail rail_electric ship" speed="22.22" length="5.26" shape="354.72,1160.68 353.60,1159.72 353.14,1158.67 353.34,1157.54 354.20,1156.34"/>
    </edge>
    <edge id=":1479334850_0" function="internal">
        <lane id=":1479334850_0_0" index="0" disallow="tram rail_urban rail rail_electric ship" speed="22.22" length="2.35" shape="543.44,1269.56 542.84,1269.20 542.45,1268.92 542.08,1268.62 541.51,1268.21"/>
    </edge>
    <edge id=":1479334850_1" function="internal">
        <lane id=":1479334850_1_0" index="0" disallow="tram rail_urban rail rail_electric ship" speed="25.00" length="4.37" shape="541.38,1278.16 539.70,1277.90 538.52,1277.70 537.43,1277.30 535.99,1276.43"/>
        <lane id=":1479334850_1_1" index="1" disallow="tram rail_urban rail rail_electric ship" speed="25.00" length="4.37" shape="541.96,1274.91 540.67,1274.73 539.77,1274.61 538.93,1274.34 537.83,1273.69"/>
        <lane id=":1479334850_1_2" index="2" disallow="tram rail_urban rail rail_electric ship" speed="25.00" length="4.37" shape="542.54,1271.66 541.65,1271.56 541.02,1271.52 540.43,1271.38 539.67,1270.95"/>
    </edge>
    <edge id=":1479334853_0" function="internal">
        <lane id=":1479334853_0_0" index="0" disallow="tram rail_urban rail rail_electric ship" speed="18.05" length="5.31" shape="591.95,1299.92 592.80,1298.67 592.96,1297.53 592.43,1296.51 591.22,1295.61"/>
    </edge>
    <edge id=":1479334853_1" function="internal">
        <lane id=":1479334853_1_0" index="0" disallow="tram rail_urban rail rail_electric ship" speed="13.89" length="7.07" shape="591.95,1299.92 596.71,1294.68"/>
    </edge>
    <edge id=":1479334853_2" function="internal">
        <lane id=":1479334853_2_0" index="0" disallow="tram rail_urban rail rail_electric ship" speed="18.05" length="6.06" shape="591.95,1299.92 593.19,1298.88 594.51,1298.38 595.93,1298.41 597.44,1298.99"/>
    </edge>
    <edge id=":1479334879_0" function="internal">
        <lane id=":1479334879_0_0" index="0" disallow="tram rail_urban rail rail_electric ship" speed="13.89" length="6.63" shape="370.96,1136.05 372.68,1136.68 374.27,1136.75 375.73,1136.27 377.05,1135.24"/>
    </edge>
    <edge id=":1479334879_1" function="internal">
        <lane id=":1479334879_1_0" index="0" disallow="tram rail_urban rail rail_electric ship" speed="13.89" length="7.64" shape="370.96,1136.05 377.76,1139.54"/>
    </edge>
    <edge id=":1479334879_2" function="internal">
        <lane id=":1479334879_2_0" index="0" disallow="tram rail_urban rail rail_electric ship" speed="18.05" length="7.63" shape="371.39,1140.34 373.16,1138.93 374.35,1137.93 375.47,1136.86 377.05,1135.24"/>
    </edge>
    <edge id=":1479334879_3" function="internal">
        <lane id=":1479334879_3_0" index="0" disallow="tram rail_urban rail rail_electric ship" speed="18.05" length="6.82" shape="371.39,1140.34 372.96,1139.36 374.55,1138.90 376.15,1138.96 377.76,1139.54"/>
    </edge>
    <edge id=":1479334897_0" function="internal">
        <lane id=":1479334897_0_0" index="0" disallow="tram rail_urban rail rail_electric ship" speed="18.05" length="5.36" shape="720.30,1361.78 719.38,1363.01 719.17,1364.13 719.67,1365.17 720.88,1366.11"/>
    </edge>
    <edge id=":1479334897_1" function="internal">
        <lane id=":1479334897_1_0" index="0" disallow="tram rail_urban rail rail_electric ship" speed="13.89" length="8.25" shape="720.30,1361.78 714.54,1367.64"/>
        <lane id=":1479334897_1_1" index="1" disallow="tram rail_urban rail rail_electric ship" speed="13.89" length="8.25" shape="717.97,1359.44 712.17,1365.35"/>
    </edge>
    <edge id=":1479334897_3" function="internal">
        <lane id=":1479334897_3_0" index="0" disallow="tram rail_urban rail rail_electric ship" speed="22.22" length="9.54" shape="712.48,1361.58 720.88,1366.11"/>
    </edge>
    <edge id=":1479334897_4" function="internal">
        <lane id=":1479334897_4_0" index="0" disallow="tram rail_urban rail rail_electric ship" speed="18.05" length="4.60" shape="712.48,1361.58 713.30,1362.24 713.52,1363.09 713.14,1364.12 712.17,1365.35"/>
    </edge>
    <edge id=":1479334902_0" function="internal">
        <lane id=":1479334902_0_0" index="0" disallow="tram rail_urban rail rail_electric ship" speed="13.89" length="0.10" shape="406.16,1166.66 406.16,1166.66"/>
    </edge>
    <edge id=":1479334915_0" function="internal">
        <lane id=":1479334915_0_0" index="0" disallow="tram rail_urban rail rail_electric ship" speed="18.05" length="5.37" shape="743.98,1338.46 743.05,1339.68 742.84,1340.81 743.34,1341.84 744.55,1342.78"/>
    </edge>
    <edge id=":1479334915_1" function="internal">
        <lane id=":1479334915_1_0" index="0" disallow="tram rail_urban rail rail_electric ship" speed="13.89" length="8.15" shape="743.98,1338.46 738.14,1344.17"/>
        <lane id=":1479334915_1_1" index="1" disallow="tram rail_urban rail rail_electric ship" speed="13.89" length="8.15" shape="741.66,1336.11 735.84,1341.80"/>
    </edge>
    <edge id=":1479334915_3" function="internal">
        <lane id=":1479334915_3_0" index="0" disallow="tram rail_urban rail rail_electric ship" speed="22.22" length="9.43" shape="736.38,1338.08 744.55,1342.78"/>
    </edge>
    <edge id=":1479334915_4" function="internal">
        <lane id=":1479334915_4_0" index="0" disallow="tram rail_urban rail rail_electric ship" speed="18.05" length="4.51" shape="736.38,1338.08 737.12,1338.77 737.27,1339.61 736.85,1340.62 735.84,1341.80"/>
    </edge>
    <edge id=":1479334935_0" function="internal">
        <lane id=":1479334935_0_0" index="0" disallow="tram rail_urban rail rail_electric ship" speed="13.89" length="7.85" shape="365.97,1149.29 358.74,1146.21"/>
    </edge>
    <edge id=":1479334935_1" function="internal">
        <lane id=":1479334935_1_0" index="0" disallow="tram rail_urban rail rail_electric ship" speed="18.05" length="5.75" shape="365.97,1149.29 364.50,1148.39 363.93,1147.39 364.24,1146.27 365.43,1145.03"/>
    </edge>
    <edge id=":1479334935_2" function="internal">
        <lane id=":1479334935_2_0" index="0" disallow="tram rail_urban rail rail_electric ship" speed="18.05" length="5.42" shape="359.79,1150.44 360.61,1149.11 360.71,1147.97 360.09,1147.00 358.74,1146.21"/>
    </edge>
    <edge id=":1479334935_3" function="internal">
        <lane id=":1479334935_3_0" index="0" disallow="tram rail_urban rail rail_electric ship" speed="22.22" length="7.83" shape="359.79,1150.44 361.30,1148.67 362.40,1147.52 363.61,1146.48 365.43,1145.03"/>
    </edge>
    <edge id=":1479334951_0" function="internal">
        <lane id=":1479334951_0_0" index="0" disallow="tram rail_urban rail rail_electric ship" speed="18.05" length="7.81" shape="471.93,1238.21 469.47,1237.00 467.44,1236.42 465.84,1236.47 464.67,1237.15"/>
    </edge>
    <edge id=":1479334951_1" function="internal">
        <lane id=":1479334951_1_0" index="0" disallow="tram rail_urban rail rail_electric ship" speed="18.05" length="12.16" shape="473.56,1235.34 470.01,1233.69 466.95,1233.07 464.37,1233.46 462.29,1234.86"/>
    </edge>
    <edge id=":1479334951_2" function="internal">
        <lane id=":1479334951_2_0" index="0" disallow="tram rail_urban rail rail_electric ship" speed="22.22" length="10.66" shape="476.82,1229.60 467.45,1224.49"/>
    </edge>
    <edge id=":1479334951_3" function="internal">
        <lane id=":1479334951_3_0" index="0" disallow="tram rail_urban rail rail_electric ship" speed="13.89" length="16.65" shape="476.26,1225.27 464.67,1237.15"/>
        <lane id=":1479334951_3_1" index="1" disallow="tram rail_urban rail rail_electric ship" speed="13.89" length="16.65" shape="473.95,1222.91 462.29,1234.86"/>
    </edge>
    <edge id=":1479334951_5" function="internal">
        <lane id=":1479334951_5_0" index="0" disallow="tram rail_urban rail rail_electric ship" speed="18.05" length="7.21" shape="473.95,1222.91 472.27,1224.25 470.63,1224.96 469.02,1225.04 467.45,1224.49"/>
    </edge>
    <edge id=":1500032695_0" function="internal">
        <lane id=":1500032695_0_0" index="0" disallow="tram rail_urban rail rail_electric ship" speed="13.89" length="5.13" shape="291.77,698.33 292.99,699.09 294.13,699.27 295.20,698.87 296.20,697.90"/>
    </edge>
    <edge id=":1500032695_1" function="internal">
        <lane id=":1500032695_1_0" index="0" disallow="tram rail_urban rail rail_electric ship" speed="13.89" length="6.33" shape="291.77,698.33 296.67,702.33"/>
    </edge>
    <edge id=":1500032695_2" function="internal">
        <lane id=":1500032695_2_0" index="0" disallow="tram rail_urban rail rail_electric ship" speed="13.89" length="6.22" shape="292.23,702.69 296.20,697.90"/>
    </edge>
    <edge id=":1500032695_3" function="internal">
        <lane id=":1500032695_3_0" index="0" disallow="tram rail_urban rail rail_electric ship" speed="13.89" length="1.52" shape="292.23,702.69 293.21,701.77 293.38,701.71"/>
    </edge>
    <edge id=":1500032695_4" function="internal">
        <lane id=":1500032695_4_0" index="0" speed="13.89" length="3.57" shape="293.38,701.71 294.28,701.40 295.43,701.59 296.67,702.33"/>
    </edge>
    <edge id=":1500032696_0" function="internal">
        <lane id=":1500032696_0_0" index="0" disallow="tram rail_urban rail rail_electric ship" speed="13.89" length="16.96" shape="384.20,762.69 379.52,759.22 375.47,756.84 372.06,755.55 369.27,755.35"/>
    </edge>
    <edge id=":1500032696_1" function="internal">
        <lane id=":1500032696_1_0" index="0" disallow="tram rail_urban rail rail_electric ship" speed="13.89" length="2.19" shape="388.34,757.55 386.85,755.95"/>
    </edge>
    <edge id=":1500032696_2" function="internal">
        <lane id=":1500032696_2_0" index="0" disallow="tram rail_urban rail rail_electric ship" speed="13.89" length="1.90" shape="390.41,754.98 389.11,753.59"/>
    </edge>
    <edge id=":1500032696_3" function="internal">
        <lane id=":1500032696_3_0" index="0" disallow="tram rail_urban rail rail_electric ship" speed="13.89" length="1.64" shape="392.48,752.41 391.51,751.37 391.44,751.17"/>
    </edge>
    <edge id=":1500032696_10" function="internal">
        <lane id=":1500032696_10_0" index="0" speed="13.89" length="14.38" shape="386.85,755.95 385.20,754.18 384.02,750.70 384.80,747.10 387.53,743.40"/>
    </edge>
    <edge id=":1500032696_11" function="internal">
        <lane id=":1500032696_11_0" index="0" speed="13.89" length="8.95" shape="389.11,753.59 388.35,752.78 387.58,750.50 388.09,748.14 389.88,745.72"/>
    </edge>
    <edge id=":1500032696_12" function="internal">
        <lane id=":1500032696_12_0" index="0" speed="13.89" length="3.49" shape="391.44,751.17 391.14,750.29 391.38,749.18 392.23,748.04"/>
    </edge>
    <edge id=":1500032696_4" function="internal">
        <lane id=":1500032696_4_0" index="0" disallow="tram rail_urban rail rail_electric ship" speed="13.89" length="20.05" shape="368.81,752.08 372.48,751.05 376.25,748.95 380.40,745.66 385.19,741.08"/>
    </edge>
    <edge id=":1500032696_5" function="internal">
        <lane id=":1500032696_5_0" index="0" disallow="tram rail_urban rail rail_electric ship" speed="13.89" length="5.64" shape="367.57,759.42 369.24,757.51 370.08,756.19 370.09,755.47 369.27,755.35"/>
    </edge>
    <edge id=":1500032696_6" function="internal">
        <lane id=":1500032696_6_0" index="0" disallow="tram rail_urban rail rail_electric ship" speed="13.89" length="25.31" shape="367.57,759.42 385.19,741.08"/>
        <lane id=":1500032696_6_1" index="1" disallow="tram rail_urban rail rail_electric ship" speed="13.89" length="25.31" shape="369.98,761.68 387.53,743.40"/>
        <lane id=":1500032696_6_2" index="2" disallow="tram rail_urban rail rail_electric ship" speed="13.89" length="25.31" shape="372.38,763.94 389.88,745.72"/>
        <lane id=":1500032696_6_3" index="3" disallow="tram rail_urban rail rail_electric ship" speed="13.89" length="25.31" shape="374.78,766.20 392.23,748.04"/>
    </edge>
    <edge id=":1532752077_0" function="internal">
        <lane id=":1532752077_0_0" index="0" disallow="tram rail_urban rail rail_electric ship" speed="13.89" length="12.20" shape="573.25,941.17 564.97,932.13"/>
        <lane id=":1532752077_0_1" index="1" disallow="tram rail_urban rail rail_electric ship" speed="13.89" length="12.20" shape="575.67,938.92 567.41,929.91"/>
        <lane id=":1532752077_0_2" index="2" disallow="tram rail_urban rail rail_electric ship" speed="13.89" length="12.20" shape="578.09,936.67 569.86,927.69"/>
        <lane id=":1532752077_0_3" index="3" disallow="tram rail_urban rail rail_electric ship" speed="13.89" length="12.20" shape="580.51,934.43 572.30,925.47"/>
    </edge>