<?xml version="1.0" encoding="UTF-8"?>

<!-- generated on Thu Mar  5 16:01:52 2020 by Eclipse SUMO polyconvert Version 1.0.1
<configuration xmlns:xsi="http://www.w3.org/2001/XMLSchema-instance" xsi:noNamespaceSchemaLocation="http://sumo.dlr.de/xsd/polyconvertConfiguration.xsd">

    <input>
        <net-file value="/root/Desktop/SUMO_MAP/sfamilia.net.xml"/>
        <osm-files value="/root/Desktop/SUMO_MAP/map.osm"/>
    </input>

    <output>
        <output-file value="/root/Desktop/SUMO_MAP//sfamilia.poly.xml"/>
    </output>

    <processing>
        <ignore-errors value="true"/>
        <poi-layer-offset value="5"/>
    </processing>

</configuration>
-->

<additional xmlns:xsi="http://www.w3.org/2001/XMLSchema-instance" xsi:noNamespaceSchemaLocation="http://sumo.dlr.de/xsd/additional_file.xsd">
    <location netOffset="-544298.42,-3836471.99" convBoundary="-153.61,-2261.68,3337.34,3933.94" origBoundary="135.481931,34.646677,135.520082,34.710973" projParameter="+proj=utm +zone=53 +ellps=WGS84 +datum=WGS84 +units=m +no_defs"/>

    <poly id="148654286" type="water" color="181,209,209" fill="1" layer="-4.00" shape="809.251684,2425.393487 824.073092,2440.148462 826.038275,2444.738029 838.126731,2456.430049 841.962246,2456.914584 929.351475,2535.922818 948.583238,2558.994561 960.209013,2571.582725 972.708471,2581.580257 988.537461,2590.629377 1006.332771,2598.412896 1026.406909,2604.710575 1044.924115,2607.241308 1045.608927,2611.403229 1218.083204,2637.148965 1308.858561,2650.938200 1316.408282,2654.169320 1360.537573,2665.455059 1359.632857,2602.151827 1244.791537,2590.926843 1213.241956,2589.928252 1082.730666,2581.965886 1044.965552,2570.879129 1022.978144,2562.487185 1004.226770,2553.534542 985.972079,2542.288857 969.189523,2527.823400 870.533962,2411.465707 870.265544,2404.555654 858.914344,2390.072658 852.657078,2388.445132 842.432798,2377.638288 809.251684,2425.393487"/>
    <poly id="148657763" type="building" color="255,230,230" fill="1" layer="-1.00" shape="1480.829379,2469.734487 1480.441836,2400.201531 1557.000729,2399.783514 1557.387749,2469.305391 1480.829379,2469.734487"/>
    <poly id="148657763#1" type="shop" color="237,199,255" fill="1" layer="-1.00" shape="1480.829379,2469.734487 1480.441836,2400.201531 1557.000729,2399.783514 1557.387749,2469.305391 1480.829379,2469.734487"/>
    <poly id="154410776" type="water" color="181,209,209" fill="1" layer="-4.00" shape="1360.537573,2665.455059 1378.953439,2668.063591 1418.592392,2670.533406 1490.589671,2669.704122 1522.621735,2667.556651 1561.406530,2664.966030 1562.840560,2669.453315 1630.943853,2665.201286 1630.883860,2658.857801 1701.985119,2644.884661 1803.403263,2627.492796 1834.165090,2624.807757 1859.466407,2622.417077 2022.899285,2607.822341 2073.517533,2599.981462 2120.541389,2582.009143 2145.486150,2572.254026 2248.320338,2526.906458 2272.612413,2519.488270 2457.262234,2432.516342 2409.663388,2388.316334 2396.750212,2398.763771 2386.481403,2409.767999 2315.279338,2457.591617 2133.790754,2537.429560 2132.916593,2534.586247 2130.188782,2534.239826 2127.693862,2533.118314 2125.163422,2531.774833 2101.683121,2541.725897 2100.643204,2542.696539 2099.185976,2542.866638 2098.025306,2542.350681 2095.596582,2544.456552 2013.571551,2564.726078 1909.315858,2570.546177 1845.617170,2576.681240 1609.465499,2617.265365 1479.809090,2614.347339 1359.632857,2602.151827 1360.537573,2665.455059"/>
    <poly id="161866475" type="building" color="255,230,230" fill="1" layer="-1.00" shape="1496.606241,1799.398671 1507.561471,1799.497435 1507.582968,1797.013501 1512.611741,1797.060658 1512.641227,1792.968791 1532.655620,1793.145858 1532.641004,1794.243643 1535.434774,1794.268617 1535.392039,1799.181039 1542.820696,1799.251230 1542.817940,1799.805690 1542.833118,1800.437865 1545.104761,1800.460247 1546.042812,1838.413076 1544.348205,1838.404652 1544.338889,1840.278726 1536.900886,1840.252845 1536.905515,1839.321352 1511.348684,1839.260904 1511.353217,1840.192442 1506.315143,1840.178507 1506.324396,1838.315522 1497.402410,1838.293392 1496.606241,1799.398671"/>
    <poly id="161866821" type="building" color="255,230,230" fill="1" layer="-1.00" shape="1589.047273,1752.483950 1608.450842,1752.092578 1608.155587,1737.796782 1622.337247,1737.512521 1623.103104,1775.032012 1589.527141,1775.707687 1589.047273,1752.483950"/>
    <poly id="161867215" type="building" color="255,230,230" fill="1" layer="-1.00" shape="1598.731063,1608.646283 1612.582821,1608.426899 1612.377035,1614.802319 1611.487883,1614.919877 1611.395155,1628.027166 1615.114381,1628.012412 1614.637681,1646.485093 1622.918693,1646.493053 1622.879932,1654.277667 1642.238351,1653.797422 1642.238930,1681.266040 1586.211873,1681.652493 1584.227341,1618.388296 1590.674892,1618.675432 1590.758822,1614.694730 1594.102151,1614.744634 1594.180730,1611.839585 1598.604806,1611.928137 1598.731063,1608.646283"/>
    <poly id="161867216" type="amenity" color="237,199,199" fill="1" layer="-1.00" shape="1425.164082,1721.994575 1491.130903,1721.401435 1493.801674,1609.677232 1427.418673,1609.059550 1425.164082,1721.994575"/>
    <poly id="161867843" type="building" color="255,230,230" fill="1" layer="-1.00" shape="1457.446244,1851.036474 1477.471069,1852.777090 1480.558068,1817.716423 1465.331112,1816.387740 1465.108049,1818.881763 1460.310161,1818.458735 1457.446244,1851.036474"/>
    <poly id="161867844" type="building" color="255,230,230" fill="1" layer="-1.00" shape="1633.939487,1537.815702 1610.067043,1537.818829 1609.567885,1516.635464 1584.843364,1516.656595 1586.794533,1571.902933 1587.327876,1575.176979 1588.697564,1577.900713 1590.948129,1580.329414 1593.395639,1581.838670 1596.577461,1583.052165 1600.743904,1583.372314 1606.679938,1583.368589 1634.227639,1582.962358 1633.939487,1537.815702"/>
    <poly id="162383073" type="building" color="255,230,230" fill="1" layer="-1.00" shape="1302.414681,2470.413988 1376.858016,2469.806591 1375.740735,2397.652919 1313.105088,2396.123020 1302.414681,2470.413988"/>
    <poly id="171997847" type="building" color="255,230,230" fill="1" layer="-1.00" shape="2120.529155,1569.040093 2120.594007,1556.154448 2108.229914,1555.626470 2120.529155,1569.040093"/>
    <poly id="171997869" type="building" color="255,230,230" fill="1" layer="-1.00" shape="2130.719408,1677.479938 2148.151777,1677.467908 2148.128514,1643.888850 2130.393738,1643.910449 2130.719408,1677.479938"/>
    <poly id="171997870" type="building" color="255,230,230" fill="1" layer="-1.00" shape="2111.910610,1677.961923 2129.343033,1677.938768 2129.319646,1644.370800 2111.594087,1644.381391 2111.910610,1677.961923"/>
    <poly id="171997877" type="building" color="255,230,230" fill="1" layer="-1.00" shape="2148.922072,1677.305445 2166.354442,1677.293449 2166.322085,1643.714344 2148.596468,1643.735954 2148.922072,1677.305445"/>
    <poly id="171997901" type="building" color="255,230,230" fill="1" layer="-1.00" shape="2109.712274,1770.769798 2129.141482,1770.745604 2129.102760,1743.864510 2109.682655,1743.888751 2109.712274,1770.769798"/>
    <poly id="171997911" type="building" color="255,230,230" fill="1" layer="-1.00" shape="2181.847656,1729.425536 2156.126173,1729.251582 2155.883756,1764.647981 2181.605140,1764.821936 2181.847656,1729.425536"/>
    <poly id="171997933" type="building" color="255,230,230" fill="1" layer="-1.00" shape="2148.547538,1578.873353 2132.122170,1578.979171 2131.905469,1545.598755 2148.321737,1545.492890 2148.547538,1578.873353"/>
    <poly id="171997935" type="building" color="255,230,230" fill="1" layer="-1.00" shape="2132.092820,1768.586924 2143.424549,1768.510907 2143.270588,1744.512497 2131.938829,1744.588515 2132.092820,1768.586924"/>
    <poly id="171997952" type="building" color="255,230,230" fill="1" layer="-1.00" shape="2130.092652,1576.340748 2129.552882,1545.265318 2108.282586,1545.158270 2108.465841,1554.252563 2121.874827,1554.663815 2122.023911,1570.544695 2130.092652,1576.340748"/>
    <poly id="171997953" type="building" color="255,230,230" fill="1" layer="-1.00" shape="2151.749120,1579.787724 2179.488745,1579.483893 2179.119005,1545.603676 2154.823899,1545.858321 2154.894390,1551.869173 2151.449884,1551.896182 2151.749120,1579.787724"/>
    <poly id="171997954" type="building" color="255,230,230" fill="1" layer="-1.00" shape="2110.568616,1638.820403 2127.560808,1638.917012 2166.565060,1639.124524 2174.516094,1639.175675 2174.575659,1627.354591 2179.027542,1627.377024 2182.462637,1627.394336 2182.562948,1609.307902 2179.127847,1609.290591 2179.136173,1607.638300 2132.153246,1607.379478 2132.138564,1610.295936 2127.595070,1610.273064 2127.485656,1630.189215 2110.612531,1630.093205 2110.568616,1638.820403"/>
    <poly id="171997963" type="building" color="255,230,230" fill="1" layer="-1.00" shape="2159.462204,1721.649913 2162.640891,1721.643747 2162.662056,1726.534315 2181.954347,1726.431914 2181.773258,1691.476961 2159.311300,1691.596664 2159.462204,1721.649913"/>
    <poly id="171997966" type="building" color="255,230,230" fill="1" layer="-1.00" shape="2149.700195,1691.958565 2116.448040,1691.924231 2116.398305,1740.030140 2148.010565,1740.067307 2148.025303,1728.046385 2152.944361,1728.060070 2152.968598,1706.879287 2149.689200,1706.873859 2149.700195,1691.958565"/>
    <poly id="172029182" type="building" color="255,230,230" fill="1" layer="-1.00" shape="2038.703087,1675.608804 2024.696300,1675.704783 2017.880718,1675.748179 2017.933177,1668.950594 2018.336747,1617.774690 2022.249629,1613.857577 2025.858611,1610.260535 2060.566758,1610.457109 2064.075790,1613.990111 2067.228964,1617.244090 2070.510546,1620.465446 2070.702991,1635.026896 2038.815790,1634.944260 2038.703087,1675.608804"/>
    <poly id="172029188" type="building" color="255,230,230" fill="1" layer="-1.00" shape="2078.344048,1623.853855 2085.909303,1631.399475 2085.804135,1639.560801 2078.100763,1639.444436 2078.344048,1623.853855"/>
    <poly id="172029192" type="building" color="255,230,230" fill="1" layer="-1.00" shape="2013.313462,1581.952640 2030.654461,1581.928836 2030.607652,1549.303366 2013.266592,1549.327171 2013.313462,1581.952640"/>
    <poly id="172029195" type="building" color="255,230,230" fill="1" layer="-1.00" shape="2053.480270,1664.393972 2086.276072,1664.115277 2086.160463,1643.388463 2053.484228,1643.556866 2053.480270,1664.393972"/>
    <poly id="172029202" type="building" color="255,230,230" fill="1" layer="-1.00" shape="2034.282273,1581.880523 2061.627042,1581.762875 2085.078333,1558.016232 2085.040839,1549.077926 2034.143706,1549.287861 2034.282273,1581.880523"/>
    <poly id="172029204" type="amenity" color="237,199,199" fill="1" layer="-1.00" shape="2068.606005,1758.774923 2062.212240,1758.742780 2062.140221,1762.135798 2042.234950,1762.102295 2041.268212,1761.254637 2034.681753,1761.288081 2034.447299,1758.725234 2031.671782,1758.711290 2029.920876,1751.671766 2031.030087,1751.510996 2030.798038,1728.410448 2029.710376,1727.928137 2031.531979,1720.895469 2034.307842,1720.842878 2034.335967,1718.891271 2034.379939,1702.845018 2033.017444,1700.542652 2034.656488,1695.205758 2072.029316,1695.537752 2073.348327,1695.555473 2078.444632,1709.509483 2077.459045,1712.409970 2070.286187,1712.462620 2070.354182,1720.802249 2068.292979,1720.825155 2068.313714,1722.167086 2070.529518,1727.833860 2071.578101,1730.622591 2070.249394,1732.534390 2068.755956,1732.593419 2068.750961,1748.163021 2070.592092,1748.183367 2071.481421,1749.851260 2070.663064,1752.286831 2068.606005,1758.774923"/>
    <poly id="172029204#1" type="building" color="255,230,230" fill="1" layer="-1.00" shape="2068.606005,1758.774923 2062.212240,1758.742780 2062.140221,1762.135798 2042.234950,1762.102295 2041.268212,1761.254637 2034.681753,1761.288081 2034.447299,1758.725234 2031.671782,1758.711290 2029.920876,1751.671766 2031.030087,1751.510996 2030.798038,1728.410448 2029.710376,1727.928137 2031.531979,1720.895469 2034.307842,1720.842878 2034.335967,1718.891271 2034.379939,1702.845018 2033.017444,1700.542652 2034.656488,1695.205758 2072.029316,1695.537752 2073.348327,1695.555473 2078.444632,1709.509483 2077.459045,1712.409970 2070.286187,1712.462620 2070.354182,1720.802249 2068.292979,1720.825155 2068.313714,1722.167086 2070.529518,1727.833860 2071.578101,1730.622591 2070.249394,1732.534390 2068.755956,1732.593419 2068.750961,1748.163021 2070.592092,1748.183367 2071.481421,1749.851260 2070.663064,1752.286831 2068.606005,1758.774923"/>
    <poly id="172029206" type="parking" color="184,184,179" fill="1" layer="-1.00" shape="2061.849101,1683.376863 2071.476802,1683.358727 2071.130795,1666.545340 2061.649584,1666.575302 2061.849101,1683.376863"/>
    <poly id="172029351" type="building" color="255,230,230" fill="1" layer="-1.00" shape="1925.315495,1611.585844 1998.004795,1609.610558 1999.507471,1678.882965 1925.831805,1680.376440 1925.315495,1611.585844"/>
    <poly id="172030423" type="building" color="255,230,230" fill="1" layer="-1.00" shape="1950.916470,1581.051793 1969.055249,1580.865532 1968.752048,1550.002006 1950.613264,1550.177179 1950.916470,1581.051793"/>
    <poly id="172030425" type="building" color="255,230,230" fill="1" layer="-1.00" shape="1970.585074,1580.862117 1979.315227,1580.828291 1979.167508,1550.020992 1970.446430,1550.065953 1970.585074,1580.862117"/>
    <poly id="172030427" type="building" color="255,230,230" fill="1" layer="-1.00" shape="1962.090452,1729.351933 1961.573048,1688.229561 1982.551721,1687.968859 1983.059871,1729.091187 1962.090452,1729.351933"/>
    <poly id="172030428" type="building" color="255,230,230" fill="1" layer="-1.00" shape="1946.336705,1688.740892 1959.546867,1688.574262 1960.082377,1729.741082 1946.872274,1729.907711 1946.336705,1688.740892"/>
    <poly id="172030432" type="building" color="255,230,230" fill="1" layer="-1.00" shape="1932.666311,1766.099074 1953.974569,1765.839962 1953.614040,1735.441899 1932.305767,1735.689924 1932.666311,1766.099074"/>
    <poly id="172030433" type="building" color="255,230,230" fill="1" layer="-1.00" shape="1980.881157,1549.896517 2001.373980,1549.766489 2001.584522,1580.818073 1981.091712,1580.959189 1980.881157,1549.896517"/>
    <poly id="172030434" type="building" color="255,230,230" fill="1" layer="-1.00" shape="1993.904090,1725.774412 2005.399972,1725.854301 2005.353980,1731.365540 1993.867266,1731.285697 1993.904090,1725.774412"/>
    <poly id="172030435" type="building" color="255,230,230" fill="1" layer="-1.00" shape="1957.814441,1770.982559 2004.224004,1770.328290 2003.673832,1732.122279 1957.264076,1732.776552 1957.814441,1770.982559"/>
    <poly id="172030436" type="building" color="255,230,230" fill="1" layer="-1.00" shape="1994.359094,1713.600451 2005.050455,1713.365796 2004.960464,1709.395311 1994.269154,1709.618877 1994.359094,1713.600451"/>
    <poly id="172030440" type="building" color="255,230,230" fill="1" layer="-1.00" shape="1994.658707,1714.134249 2005.541708,1714.044720 2005.639639,1725.556089 1994.756597,1725.656707 1994.658707,1714.134249"/>
    <poly id="172030441" type="building" color="255,230,230" fill="1" layer="-1.00" shape="1921.352288,1550.607150 1935.946523,1550.314345 1936.581927,1582.543538 1921.987799,1582.825253 1921.352288,1550.607150"/>
    <poly id="172030442" type="building" color="255,230,230" fill="1" layer="-1.00" shape="1937.784970,1550.878035 1948.631797,1550.732806 1949.040541,1582.484018 1938.202910,1582.629291 1937.784970,1550.878035"/>
    <poly id="172030444" type="building" color="255,230,230" fill="1" layer="-1.00" shape="1993.479718,1688.045883 2003.163376,1687.828347 2003.441620,1699.917273 1993.757919,1700.145898 1993.479718,1688.045883"/>
    <poly id="172030445" type="building" color="255,230,230" fill="1" layer="-1.00" shape="1984.493738,1687.967515 1992.253032,1687.884474 1992.484893,1707.392026 1984.725560,1707.486157 1984.493738,1687.967515"/>
    <poly id="179076080" type="building" color="255,230,230" fill="1" layer="-1.00" shape="1486.438536,2225.538775 1555.994447,2224.542575 1556.389663,2251.902280 1486.833959,2252.898475 1486.438536,2225.538775"/>
    <poly id="179076081" type="building" color="255,230,230" fill="1" layer="-1.00" shape="1607.089656,2347.535154 1648.870481,2346.900457 1648.760836,2378.094620 1646.544223,2379.924428 1631.199243,2380.413542 1606.969662,2380.836266 1607.089656,2347.535154"/>
    <poly id="179076088" type="building" color="255,230,230" fill="1" layer="-1.00" shape="1860.200069,2395.363501 1899.303254,2395.293191 1902.309271,2398.624009 1901.787444,2436.957749 1898.878391,2439.870797 1860.471514,2439.944592 1857.842143,2438.223649 1857.409313,2398.432408 1860.200069,2395.363501"/>
    <poly id="179076089" type="building" color="255,230,230" fill="1" layer="-1.00" shape="1610.055440,2338.733784 1647.037258,2337.964290 1645.980854,2309.159647 1609.120866,2309.353100 1610.055440,2338.733784"/>
    <poly id="179076094" type="building" color="255,230,230" fill="1" layer="-1.00" shape="1666.946539,2353.477896 1732.917302,2351.200972 1733.599313,2370.544434 1667.628633,2372.832441 1666.946539,2353.477896"/>
    <poly id="179076096" type="building" color="255,230,230" fill="1" layer="-1.00" shape="1667.977405,2332.268858 1733.100522,2329.178175 1732.331947,2308.825140 1667.091879,2311.460578 1667.977405,2332.268858"/>
    <poly id="179076111" type="building" color="255,230,230" fill="1" layer="-1.00" shape="1510.494830,2261.920840 1484.032314,2261.867040 1483.973394,2288.492580 1510.435779,2288.557470 1510.494830,2261.920840"/>
    <poly id="179076111#1" type="tourism" color="207,245,201" fill="1" layer="-2.00" shape="1510.494830,2261.920840 1484.032314,2261.867040 1483.973394,2288.492580 1510.435779,2288.557470 1510.494830,2261.920840"/>
    <poly id="179076112" type="parking" color="184,184,179" fill="1" layer="-1.00" shape="1417.911706,2127.977361 1449.897492,2128.147082 1450.103137,2090.388447 1418.108061,2090.218682 1417.911706,2127.977361"/>
    <poly id="179076128" type="building" color="255,230,230" fill="1" layer="-1.00" shape="1775.730736,2420.712988 1814.277012,2418.421638 1812.603188,2390.467766 1781.505844,2392.319500 1782.047272,2401.282509 1774.589072,2401.722086 1775.730736,2420.712988"/>
    <poly id="220002946" type="building" color="255,230,230" fill="1" layer="-1.00" shape="1974.757153,2523.821677 1976.357918,2520.602670 1979.555649,2520.396929 1979.997865,2523.537475 1991.630169,2521.788281 1991.607172,2519.071241 1993.881590,2518.506006 1995.911044,2521.122226 2012.822547,2518.723109 2012.062621,2487.657631 2010.985265,2486.964671 2010.563437,2463.353030 2008.950685,2461.659328 1972.364032,2464.081679 1974.757153,2523.821677"/>
    <poly id="220002948" type="amenity" color="237,199,199" fill="1" layer="-1.00" shape="1668.347152,2460.210052 1731.187009,2457.440671 1730.368910,2395.634896 1667.531174,2397.894183 1666.702438,2430.005191 1668.347152,2460.210052"/>
    <poly id="220002948#1" type="building" color="255,230,230" fill="1" layer="-1.00" shape="1668.347152,2460.210052 1731.187009,2457.440671 1730.368910,2395.634896 1667.531174,2397.894183 1666.702438,2430.005191 1668.347152,2460.210052"/>
    <poly id="220002956" type="building" color="255,230,230" fill="1" layer="-1.00" shape="1974.299681,2361.280753 2009.986324,2359.408357 2008.187940,2325.365690 1973.683139,2327.166399 1974.101772,2335.008767 1972.910697,2335.069326 1974.299681,2361.280753"/>
    <poly id="220002957" type="building" color="255,230,230" fill="1" layer="-1.00" shape="1943.083291,2363.098078 1952.562893,2363.245429 1957.156636,2358.655246 1957.479268,2338.163494 1952.052700,2333.478689 1942.582226,2333.331385 1937.270531,2338.616612 1936.965333,2357.467208 1943.083291,2363.098078"/>
    <poly id="221963042" type="building" color="255,230,230" fill="1" layer="-1.00" shape="1707.244777,2594.897323 1714.341426,2593.457835 1711.426607,2579.193300 1704.329948,2580.632790 1707.244777,2594.897323"/>
    <poly id="221963049" type="building" color="255,230,230" fill="1" layer="-1.00" shape="1616.194277,2610.600823 1642.829034,2605.299655 1640.272856,2592.567280 1613.628904,2597.868410 1616.194277,2610.600823"/>
    <poly id="221963059" type="building" color="255,230,230" fill="1" layer="-1.00" shape="1667.419073,2602.272803 1706.456470,2595.015374 1703.717437,2580.396854 1664.679981,2587.654296 1667.419073,2602.272803"/>
    <poly id="221963083" type="building" color="255,230,230" fill="1" layer="-1.00" shape="1644.990181,2605.399140 1666.041108,2601.245701 1663.360435,2587.769702 1642.309533,2591.912059 1644.990181,2605.399140"/>
    <poly id="225782512" type="building" color="255,230,230" fill="1" layer="-1.00" shape="1617.221540,1640.842327 1622.379525,1640.712755 1622.320046,1637.940092 1628.549891,1637.793681 1628.193300,1622.943107 1630.520335,1622.888159 1630.163857,1608.015407 1619.060067,1608.270624 1619.560851,1629.121317 1616.949794,1629.185943 1617.221540,1640.842327"/>
    <poly id="225782524" type="building" color="255,230,230" fill="1" layer="-1.00" shape="1613.370791,1626.794980 1617.364549,1626.837041 1617.592769,1608.596003 1613.599058,1608.542852 1613.370791,1626.794980"/>
    <poly id="225782548" type="building" color="255,230,230" fill="1" layer="-1.00" shape="1632.139945,1634.285108 1641.503368,1633.999060 1640.681334,1607.768372 1631.308724,1608.054376 1632.139945,1634.285108"/>
    <poly id="225782549" type="building" color="255,230,230" fill="1" layer="-1.00" shape="1628.469938,1652.009982 1635.076226,1651.688018 1634.518327,1640.473787 1627.911975,1640.806840 1628.469938,1652.009982"/>
    <poly id="225782569" type="building" color="255,230,230" fill="1" layer="-1.00" shape="1635.743762,1651.924222 1635.511214,1641.598768 1641.722681,1641.463364 1641.955277,1651.777729 1635.743762,1651.924222"/>
    <poly id="225782613" type="building" color="255,230,230" fill="1" layer="-1.00" shape="1627.089432,1640.425702 1642.289630,1639.824947 1642.077536,1634.589661 1630.029169,1635.061949 1630.168105,1638.433839 1627.016321,1638.551218 1627.089432,1640.425702"/>
    <poly id="232656868" type="parking" color="184,184,179" fill="1" layer="-1.00" shape="1797.149634,2579.399689 1794.657697,2563.019148 1826.804507,2558.167466 1830.181362,2560.601869 1832.238802,2574.108069 1797.149634,2579.399689"/>
    <poly id="232656869" type="building" color="255,230,230" fill="1" layer="-1.00" shape="1608.920360,2469.206963 1647.908064,2468.347663 1647.137990,2433.556120 1649.648024,2431.661237 1649.611400,2429.820200 1648.796426,2393.010150 1630.465807,2393.417850 1607.243417,2393.923215 1608.920360,2469.206963"/>
    <poly id="232656870" type="building" color="255,230,230" fill="1" layer="-1.00" shape="1842.137121,2338.616918 1859.391314,2337.350358 1859.502894,2338.847997 1863.507169,2338.557537 1863.858560,2343.383222 1865.901914,2343.238200 1867.419494,2363.949866 1860.244760,2364.479509 1860.090658,2362.327378 1843.963632,2363.499772 1842.137121,2338.616918"/>
    <poly id="232656871" type="amenity" color="237,199,199" fill="1" layer="-1.00" shape="1406.805402,2433.781116 1406.848052,2430.720632 1409.696530,2430.756931 1409.815598,2421.519986 1407.260219,2421.485140 1407.350686,2414.321786 1409.713718,2414.355679 1409.920726,2398.465484 1391.107925,2398.216991 1390.639643,2433.567923 1406.805402,2433.781116"/>
    <poly id="232656871#1" type="building" color="255,230,230" fill="1" layer="-1.00" shape="1406.805402,2433.781116 1406.848052,2430.720632 1409.696530,2430.756931 1409.815598,2421.519986 1407.260219,2421.485140 1407.350686,2414.321786 1409.713718,2414.355679 1409.920726,2398.465484 1391.107925,2398.216991 1390.639643,2433.567923 1406.805402,2433.781116"/>
    <poly id="232656872" type="building" color="255,230,230" fill="1" layer="-1.00" shape="1412.062099,2433.973517 1419.023221,2434.019119 1419.059872,2428.474562 1425.892767,2428.519534 1426.083931,2397.359050 1412.299023,2397.268522 1412.190676,2413.580605 1410.706843,2413.573249 1410.649087,2423.376061 1412.123705,2423.394461 1412.062099,2433.973517"/>
    <poly id="232656872#1" type="shop" color="237,199,255" fill="1" layer="-1.00" shape="1412.062099,2433.973517 1419.023221,2434.019119 1419.059872,2428.474562 1425.892767,2428.519534 1426.083931,2397.359050 1412.299023,2397.268522 1412.190676,2413.580605 1410.706843,2413.573249 1410.649087,2423.376061 1412.123705,2423.394461 1412.062099,2433.973517"/>
    <poly id="232656873" type="building" color="255,230,230" fill="1" layer="-1.00" shape="1907.768076,2565.026944 1907.513859,2560.922560 1909.996869,2560.768661 1909.463070,2552.138364 1929.079816,2550.917048 1929.605549,2559.325517 1932.464204,2559.151329 1932.752379,2563.788181 1929.783758,2563.972907 1929.825662,2564.749381 1910.236479,2565.959743 1910.168651,2564.872633 1907.768076,2565.026944"/>
    <poly id="232656874" type="building" color="255,230,230" fill="1" layer="-1.00" shape="1435.281067,2469.220123 1446.519387,2469.331321 1446.601991,2461.912869 1447.380542,2461.916732 1447.464576,2454.209961 1446.786779,2454.206598 1446.888665,2444.747779 1447.511507,2444.750869 1447.600658,2436.012802 1447.041932,2436.010030 1447.060005,2434.213624 1435.647667,2434.090474 1435.281067,2469.220123"/>
    <poly id="232656876" type="amenity" color="237,199,199" fill="1" layer="-1.00" shape="1751.281677,2419.249021 1767.660568,2418.975974 1769.419407,2418.940403 1768.902129,2388.641349 1765.925017,2388.681923 1765.987453,2392.685538 1759.208711,2392.795839 1759.236265,2394.614651 1756.341535,2394.666729 1756.278208,2390.840541 1751.478081,2390.927462 1751.441921,2388.997711 1755.399264,2388.928760 1755.356437,2386.499949 1750.721234,2386.576604 1751.281677,2419.249021"/>
    <poly id="232656876#1" type="building" color="255,230,230" fill="1" layer="-1.00" shape="1751.281677,2419.249021 1767.660568,2418.975974 1769.419407,2418.940403 1768.902129,2388.641349 1765.925017,2388.681923 1765.987453,2392.685538 1759.208711,2392.795839 1759.236265,2394.614651 1756.341535,2394.666729 1756.278208,2390.840541 1751.478081,2390.927462 1751.441921,2388.997711 1755.399264,2388.928760 1755.356437,2386.499949 1750.721234,2386.576604 1751.281677,2419.249021"/>
    <poly id="232656877" type="building" color="255,230,230" fill="1" layer="-1.00" shape="1793.956420,2455.946656 1793.944698,2454.626949 1796.976635,2454.608837 1796.968073,2452.657045 1799.294679,2452.646498 1799.266790,2449.064455 1802.738381,2449.048544 1802.570419,2424.018736 1790.552489,2424.102819 1790.583334,2428.926899 1796.949542,2428.881097 1796.970380,2432.041704 1800.744239,2432.027303 1800.780523,2437.594406 1794.112060,2437.638695 1794.091664,2434.389374 1792.003199,2434.401113 1792.039987,2439.868412 1792.589609,2439.860070 1792.602786,2442.721223 1790.312815,2442.731955 1790.402341,2455.973248 1793.956420,2455.946656"/>
    <poly id="232656878" type="building" color="255,230,230" fill="1" layer="-1.00" shape="1543.171793,2541.194344 1562.975111,2541.126485 1562.954853,2535.991954 1543.151579,2536.048724 1543.171793,2541.194344"/>
    <poly id="232656879" type="building" color="255,230,230" fill="1" layer="-1.00" shape="1891.564397,2495.636453 1891.619393,2470.031102 1898.379152,2470.042790 1898.324136,2495.648141 1891.564397,2495.636453"/>
    <poly id="232656880" type="building" color="255,230,230" fill="1" layer="-1.00" shape="1678.968453,2560.179258 1687.193966,2560.131564 1687.015508,2524.289460 1678.790018,2524.326065 1678.968453,2560.179258"/>
    <poly id="232656882" type="building" color="255,230,230" fill="1" layer="-1.00" shape="1775.410593,2583.760092 1781.223131,2582.680192 1778.314785,2567.140376 1772.502238,2568.220278 1775.410593,2583.760092"/>
    <poly id="232656883" type="building" color="255,230,230" fill="1" layer="-1.00" shape="1490.989043,2533.959758 1501.763022,2533.492066 1501.392771,2525.051132 1490.618782,2525.518825 1490.989043,2533.959758"/>
    <poly id="232656884" type="building" color="255,230,230" fill="1" layer="-1.00" shape="1472.385612,2526.648136 1478.109657,2526.787448 1478.839810,2495.951229 1473.115691,2495.823005 1472.385612,2526.648136"/>
    <poly id="232656885" type="building" color="255,230,230" fill="1" layer="-1.00" shape="1817.072388,2460.209709 1816.911059,2444.849965 1820.950703,2444.803634 1821.111971,2460.174467 1817.072388,2460.209709"/>
    <poly id="232656886" type="building" color="255,230,230" fill="1" layer="-1.00" shape="1896.735414,2567.766212 1895.720627,2552.757049 1904.058619,2552.199996 1905.073393,2567.209159 1896.735414,2567.766212"/>
    <poly id="232656887" type="building" color="255,230,230" fill="1" layer="-1.00" shape="1884.355792,2495.633612 1884.410769,2470.028261 1891.179686,2470.039989 1891.115531,2495.645294 1884.355792,2495.633612"/>
    <poly id="232656888" type="building" color="255,230,230" fill="1" layer="-1.00" shape="1731.987673,2590.618293 1748.948867,2587.398321 1746.342193,2573.800682 1729.380920,2577.031748 1731.987673,2590.618293"/>
    <poly id="232656889" type="building" color="255,230,230" fill="1" layer="-1.00" shape="1724.494486,2590.758318 1722.002808,2577.970793 1727.934746,2576.824918 1730.426416,2589.612445 1724.494486,2590.758318"/>
    <poly id="232656890" type="building" color="255,230,230" fill="1" layer="-1.00" shape="1759.053802,2493.487581 1750.260789,2493.443661 1750.228002,2500.008473 1759.021009,2500.052392 1759.053802,2493.487581"/>
    <poly id="232656891" type="building" color="255,230,230" fill="1" layer="-1.00" shape="1781.943458,2543.016699 1793.725682,2540.580457 1791.740081,2474.211048 1780.161148,2474.441501 1781.943458,2543.016699"/>
    <poly id="232656893" type="building" color="255,230,230" fill="1" layer="-1.00" shape="1750.017846,2587.935955 1756.646386,2586.693772 1753.844810,2571.775509 1747.216315,2573.006604 1750.017846,2587.935955"/>