<?xml version="1.0" encoding="UTF-8"?>

<!-- generated on jue 05 mar 2020 16:05:31 CET by Eclipse SUMO netedit Version 1.0.1
<configuration xmlns:xsi="http://www.w3.org/2001/XMLSchema-instance" xsi:noNamespaceSchemaLocation="http://sumo.dlr.de/xsd/netconvertConfiguration.xsd">

    <input>
        <sumo-net-file value="/root/Desktop/SUMO_MAP/sfamilia.net.xml"/>
    </input>

    <output>
        <output-file value="/root/Desktop/SUMO_MAP/sfamilia.net.xml"/>
    </output>

    <processing>
        <offset.disable-normalization value="true"/>
        <lefthand value="false"/>
    </processing>

    <junctions>
        <no-turnarounds value="true"/>
        <junctions.corner-detail value="5"/>
        <junctions.limit-turn-speed value="5.5"/>
        <rectangular-lane-cut value="false"/>
    </junctions>

    <pedestrian>
        <walkingareas value="false"/>
    </pedestrian>

</configuration>
-->

<net version="1.0" junctionCornerDetail="5" limitTurnSpeed="5.50" xmlns:xsi="http://www.w3.org/2001/XMLSchema-instance" xsi:noNamespaceSchemaLocation="http://sumo.dlr.de/xsd/net_file.xsd">

    <location netOffset="-544298.42,-3836471.99" convBoundary="0.00,0.00,2106.44,2596.88" origBoundary="135.483088,34.646677,135.514705,34.710973" projParameter="+proj=utm +zone=53 +ellps=WGS84 +datum=WGS84 +units=m +no_defs"/>

    <type id="highway.bridleway" priority="1" numLanes="1" speed="2.78" allow="pedestrian" oneway="1" width="2.00"/>
    <type id="highway.bus_guideway" priority="1" numLanes="1" speed="27.78" allow="bus" oneway="1"/>
    <type id="highway.cycleway" priority="1" numLanes="1" speed="8.33" allow="bicycle" oneway="0" width="1.00"/>
    <type id="highway.footway" priority="1" numLanes="1" speed="2.78" allow="pedestrian" oneway="1" width="2.00"/>
    <type id="highway.ford" priority="1" numLanes="1" speed="2.78" allow="army" oneway="0"/>
    <type id="highway.living_street" priority="2" numLanes="1" speed="2.78" disallow="tram rail_urban rail rail_electric ship" oneway="0"/>
    <type id="highway.motorway" priority="14" numLanes="2" speed="39.44" allow="private emergency authority army vip passenger hov taxi bus coach delivery truck trailer motorcycle evehicle custom1 custom2" oneway="1"/>
    <type id="highway.motorway_link" priority="9" numLanes="1" speed="22.22" allow="private emergency authority army vip passenger hov taxi bus coach delivery truck trailer motorcycle evehicle custom1 custom2" oneway="1"/>
    <type id="highway.path" priority="1" numLanes="1" speed="2.78" allow="bicycle pedestrian" oneway="1" width="2.00"/>
    <type id="highway.pedestrian" priority="1" numLanes="1" speed="2.78" allow="pedestrian" oneway="1" width="2.00"/>
    <type id="highway.primary" priority="12" numLanes="2" speed="27.78" disallow="tram rail_urban rail rail_electric ship" oneway="0"/>
    <type id="highway.primary_link" priority="7" numLanes="1" speed="22.22" disallow="tram rail_urban rail rail_electric ship" oneway="0"/>
    <type id="highway.raceway" priority="15" numLanes="2" speed="83.33" allow="vip" oneway="0"/>
    <type id="highway.residential" priority="3" numLanes="1" speed="13.89" disallow="tram rail_urban rail rail_electric ship" oneway="0"/>
    <type id="highway.secondary" priority="11" numLanes="2" speed="27.78" disallow="tram rail_urban rail rail_electric ship" oneway="0"/>
    <type id="highway.secondary_link" priority="6" numLanes="1" speed="22.22" disallow="tram rail_urban rail rail_electric ship" oneway="0"/>
    <type id="highway.service" priority="1" numLanes="1" speed="5.56" allow="delivery bicycle pedestrian" oneway="0"/>
    <type id="highway.stairs" priority="1" numLanes="1" speed="1.39" allow="pedestrian" oneway="1" width="2.00"/>
    <type id="highway.step" priority="1" numLanes="1" speed="1.39" allow="pedestrian" oneway="1" width="2.00"/>
    <type id="highway.steps" priority="1" numLanes="1" speed="1.39" allow="pedestrian" oneway="1" width="2.00"/>
    <type id="highway.tertiary" priority="10" numLanes="1" speed="22.22" disallow="tram rail_urban rail rail_electric ship" oneway="0"/>
    <type id="highway.tertiary_link" priority="5" numLanes="1" speed="22.22" disallow="tram rail_urban rail rail_electric ship" oneway="0"/>
    <type id="highway.track" priority="1" numLanes="1" speed="5.56" disallow="tram rail_urban rail rail_electric ship" oneway="0"/>
    <type id="highway.trunk" priority="13" numLanes="2" speed="27.78" disallow="tram rail_urban rail rail_electric bicycle pedestrian ship" oneway="0"/>
    <type id="highway.trunk_link" priority="8" numLanes="1" speed="22.22" disallow="tram rail_urban rail rail_electric bicycle pedestrian ship" oneway="0"/>
    <type id="highway.unclassified" priority="4" numLanes="1" speed="13.89" disallow="tram rail_urban rail rail_electric ship" oneway="0"/>
    <type id="highway.unsurfaced" priority="1" numLanes="1" speed="8.33" disallow="tram rail_urban rail rail_electric ship" oneway="0"/>
    <type id="railway.light_rail" priority="19" numLanes="1" speed="27.78" allow="rail_urban" oneway="1"/>
    <type id="railway.preserved" priority="16" numLanes="1" speed="27.78" allow="rail" oneway="1"/>
    <type id="railway.rail" priority="20" numLanes="1" speed="83.33" allow="rail rail_electric" oneway="1"/>
    <type id="railway.subway" priority="18" numLanes="1" speed="27.78" allow="rail_urban" oneway="1"/>
    <type id="railway.tram" priority="17" numLanes="1" speed="13.89" allow="tram" oneway="1"/>

    <edge id=":1617306717_0" function="internal">
        <lane id=":1617306717_0_0" index="0" disallow="tram rail_urban rail rail_electric ship" speed="13.89" length="14.05" shape="1562.92,2063.85 1562.43,2049.80"/>
    </edge>
    <edge id=":1617306717_1" function="internal">
        <lane id=":1617306717_1_0" index="0" disallow="tram rail_urban rail rail_electric ship" speed="6.92" length="10.36" shape="1562.92,2063.85 1563.04,2060.07 1563.67,2057.35 1564.82,2055.69 1566.49,2055.10"/>
    </edge>
    <edge id=":1617306717_2" function="internal">
        <lane id=":1617306717_2_0" index="0" disallow="tram rail_urban rail rail_electric ship" speed="6.94" length="2.82" shape="1566.59,2058.29 1564.89,2057.81 1564.23,2056.99"/>
    </edge>
    <edge id=":1617306717_3" function="internal">
        <lane id=":1617306717_3_0" index="0" disallow="tram rail_urban rail rail_electric ship" speed="3.65" length="2.17" shape="1566.59,2058.29 1565.36,2057.53 1565.02,2056.89"/>
    </edge>
    <edge id=":1617306717_6" function="internal">
        <lane id=":1617306717_6_0" index="0" speed="6.94" length="7.54" shape="1564.23,2056.99 1563.63,2056.23 1562.81,2053.56 1562.43,2049.80"/>
    </edge>
    <edge id=":1617306717_7" function="internal">
        <lane id=":1617306717_7_0" index="0" speed="3.65" length="2.50" shape="1565.02,2056.89 1564.94,2056.75 1565.31,2055.93 1566.49,2055.10"/>
    </edge>
    <edge id=":1617306717_4" function="internal">
        <lane id=":1617306717_4_0" index="0" disallow="tram rail_urban rail rail_electric ship" speed="7.00" length="10.25" shape="1557.20,2057.27 1559.58,2056.63 1561.25,2055.18 1562.20,2052.90 1562.43,2049.80"/>
    </edge>
    <edge id=":1617306717_5" function="internal">
        <lane id=":1617306717_5_0" index="0" disallow="tram rail_urban rail rail_electric ship" speed="13.89" length="9.58" shape="1557.20,2057.27 1559.99,2056.79 1561.84,2056.09 1563.69,2055.45 1566.49,2055.10"/>
    </edge>
    <edge id=":1617306774_0" function="internal">
        <lane id=":1617306774_0_0" index="0" disallow="tram rail_urban rail rail_electric ship" speed="13.89" length="11.16" shape="1384.74,2483.47 1384.76,2472.31"/>
    </edge>
    <edge id=":1617306774_1" function="internal">
        <lane id=":1617306774_1_0" index="0" disallow="tram rail_urban rail rail_electric ship" speed="6.51" length="4.27" shape="1390.34,2477.91 1387.89,2477.55 1386.35,2476.62"/>
    </edge>
    <edge id=":1617306774_2" function="internal">
        <lane id=":1617306774_2_0" index="0" speed="6.51" length="4.74" shape="1386.35,2476.62 1386.15,2476.49 1385.10,2474.75 1384.76,2472.31"/>
    </edge>
    <edge id=":1617306775_0" function="internal">
        <lane id=":1617306775_0_0" index="0" disallow="tram rail_urban rail rail_electric ship" speed="6.51" length="9.02" shape="1489.47,2478.95 1487.04,2479.38 1485.33,2480.49 1484.34,2482.27 1484.07,2484.72"/>
    </edge>
    <edge id=":1617306775_1" function="internal">
        <lane id=":1617306775_1_0" index="0" disallow="tram rail_urban rail rail_electric ship" speed="13.89" length="10.10" shape="1489.47,2478.95 1486.49,2479.05 1484.43,2479.08 1482.36,2479.00 1479.39,2478.79"/>
    </edge>
    <edge id=":1617306777_0" function="internal">
        <lane id=":1617306777_0_0" index="0" disallow="tram rail_urban rail rail_electric ship" speed="13.89" length="10.18" shape="1479.19,2478.77 1469.02,2478.39"/>
    </edge>
    <edge id=":1617306777_1" function="internal">
        <lane id=":1617306777_1_0" index="0" disallow="tram rail_urban rail rail_electric ship" speed="6.49" length="4.52" shape="1474.62,2472.81 1474.28,2475.26 1473.23,2477.01"/>
    </edge>
    <edge id=":1617306777_2" function="internal">
        <lane id=":1617306777_2_0" index="0" speed="6.49" length="4.52" shape="1473.23,2477.01 1471.47,2478.05 1469.02,2478.39"/>
    </edge>
    <edge id=":1617349338_0" function="internal">
        <lane id=":1617349338_0_0" index="0" disallow="tram rail_urban rail rail_electric ship" speed="6.61" length="8.95" shape="1475.60,1952.56 1475.87,1954.94 1476.86,1956.70 1478.55,1957.86 1480.97,1958.41"/>
    </edge>
    <edge id=":1617349338_1" function="internal">
        <lane id=":1617349338_1_0" index="0" disallow="tram rail_urban rail rail_electric ship" speed="13.89" length="10.92" shape="1475.60,1952.56 1475.53,1963.48"/>
    </edge>
    <edge id=":1617349338_2" function="internal">
        <lane id=":1617349338_2_0" index="0" disallow="tram rail_urban rail rail_electric ship" speed="13.89" length="10.92" shape="1470.07,1957.79 1480.97,1958.41"/>
    </edge>
    <edge id=":1617349338_3" function="internal">
        <lane id=":1617349338_3_0" index="0" disallow="tram rail_urban rail rail_electric ship" speed="6.56" length="4.21" shape="1470.07,1957.79 1472.42,1958.19 1473.96,1959.18"/>
    </edge>
    <edge id=":1617349338_4" function="internal">
        <lane id=":1617349338_4_0" index="0" speed="6.56" length="4.70" shape="1473.96,1959.18 1474.11,1959.28 1475.15,1961.04 1475.53,1963.48"/>
    </edge>
    <edge id=":1617349339_0" function="internal">
        <lane id=":1617349339_0_0" index="0" disallow="tram rail_urban rail rail_electric ship" speed="6.49" length="9.03" shape="1476.74,2052.48 1477.09,2054.93 1478.14,2056.68 1479.89,2057.72 1482.34,2058.06"/>
    </edge>
    <edge id=":1617349339_1" function="internal">
        <lane id=":1617349339_1_0" index="0" disallow="tram rail_urban rail rail_electric ship" speed="13.89" length="11.21" shape="1476.74,2052.48 1476.73,2063.69"/>
    </edge>
    <edge id=":1617349339_2" function="internal">
        <lane id=":1617349339_2_0" index="0" disallow="tram rail_urban rail rail_electric ship" speed="13.89" length="11.21" shape="1471.13,2058.10 1482.34,2058.06"/>
    </edge>
    <edge id=":1617349339_3" function="internal">
        <lane id=":1617349339_3_0" index="0" disallow="tram rail_urban rail rail_electric ship" speed="6.50" length="4.29" shape="1471.13,2058.10 1473.58,2058.45 1475.13,2059.38"/>
    </edge>
    <edge id=":1617349339_4" function="internal">
        <lane id=":1617349339_4_0" index="0" speed="6.50" length="4.74" shape="1475.13,2059.38 1475.33,2059.49 1476.38,2061.24 1476.73,2063.69"/>
    </edge>
    <edge id=":1617349340_0" function="internal">
        <lane id=":1617349340_0_0" index="0" disallow="tram rail_urban rail rail_electric ship" speed="6.45" length="9.03" shape="1482.39,2136.65 1479.92,2136.91 1478.14,2137.90 1477.07,2139.63 1476.69,2142.08"/>
    </edge>
    <edge id=":1617349340_1" function="internal">
        <lane id=":1617349340_1_0" index="0" disallow="tram rail_urban rail rail_electric ship" speed="13.89" length="11.28" shape="1482.39,2136.65 1471.11,2136.30"/>
    </edge>
    <edge id=":1617349340_2" function="internal">
        <lane id=":1617349340_2_0" index="0" disallow="tram rail_urban rail rail_electric ship" speed="13.89" length="11.28" shape="1476.75,2130.80 1476.69,2142.08"/>
    </edge>
    <edge id=":1617349340_3" function="internal">
        <lane id=":1617349340_3_0" index="0" disallow="tram rail_urban rail rail_electric ship" speed="6.45" length="4.33" shape="1476.75,2130.80 1476.40,2133.26 1475.44,2134.83"/>
    </edge>
    <edge id=":1617349340_4" function="internal">
        <lane id=":1617349340_4_0" index="0" speed="6.45" length="4.71" shape="1475.44,2134.83 1475.34,2134.99 1473.58,2136.01 1471.11,2136.30"/>
    </edge>
    <edge id=":1738263104_0" function="internal">
        <lane id=":1738263104_0_0" index="0" disallow="tram rail_urban rail rail_electric ship" speed="13.89" length="11.18" shape="1484.04,1787.29 1495.22,1787.06"/>
    </edge>
    <edge id=":1738263104_1" function="internal">
        <lane id=":1738263104_1_0" index="0" disallow="tram rail_urban rail rail_electric ship" speed="6.42" length="9.04" shape="1484.04,1787.29 1486.51,1787.61 1488.25,1788.65 1489.26,1790.40 1489.54,1792.88"/>
    </edge>
    <edge id=":1738263111_0" function="internal">
        <lane id=":1738263111_0_0" index="0" disallow="tram rail_urban rail rail_electric ship" speed="6.72" length="8.82" shape="1487.70,1874.53 1485.30,1874.84 1483.49,1875.80 1482.28,1877.40 1481.66,1879.66"/>
    </edge>
    <edge id=":1738263111_1" function="internal">
        <lane id=":1738263111_1_0" index="0" disallow="tram rail_urban rail rail_electric ship" speed="13.89" length="10.59" shape="1487.70,1874.53 1484.64,1874.50 1482.40,1874.44 1480.17,1874.28 1477.13,1874.00"/>
    </edge>
    <edge id=":1738263111_2" function="internal">
        <lane id=":1738263111_2_0" index="0" disallow="tram rail_urban rail rail_electric ship" speed="13.89" length="10.59" shape="1483.09,1869.16 1481.66,1879.66"/>
    </edge>
    <edge id=":1738263111_3" function="internal">
        <lane id=":1738263111_3_0" index="0" disallow="tram rail_urban rail rail_electric ship" speed="6.50" length="4.04" shape="1483.09,1869.16 1482.42,1871.47 1481.42,1872.76"/>
    </edge>
    <edge id=":1738263111_4" function="internal">
        <lane id=":1738263111_4_0" index="0" speed="6.50" length="4.62" shape="1481.42,1872.76 1481.20,1873.04 1479.44,1873.89 1477.13,1874.00"/>
    </edge>
    <edge id=":1742873095_0" function="internal">
        <lane id=":1742873095_0_0" index="0" disallow="tram rail_urban rail rail_electric ship" speed="6.51" length="9.02" shape="1473.38,2308.45 1473.02,2306.01 1471.97,2304.26 1470.22,2303.22 1467.77,2302.87"/>
    </edge>
    <edge id=":1742873095_1" function="internal">
        <lane id=":1742873095_1_0" index="0" disallow="tram rail_urban rail rail_electric ship" speed="3.65" length="2.20" shape="1473.38,2308.45 1474.18,2307.25 1474.85,2306.91"/>
    </edge>
    <edge id=":1742873095_6" function="internal">
        <lane id=":1742873095_6_0" index="0" speed="3.65" length="2.48" shape="1474.85,2306.91 1474.98,2306.84 1475.78,2307.24 1476.58,2308.44"/>
    </edge>
    <edge id=":1742873095_2" function="internal">
        <lane id=":1742873095_2_0" index="0" disallow="tram rail_urban rail rail_electric ship" speed="6.52" length="9.03" shape="1482.14,2302.78 1479.70,2303.15 1477.96,2304.22 1476.92,2305.98 1476.58,2308.44"/>
    </edge>
    <edge id=":1742873095_3" function="internal">
        <lane id=":1742873095_3_0" index="0" disallow="tram rail_urban rail rail_electric ship" speed="13.89" length="14.36" shape="1482.14,2302.78 1467.77,2302.87"/>
    </edge>
    <edge id=":1742873095_4" function="internal">
        <lane id=":1742873095_4_0" index="0" disallow="tram rail_urban rail rail_electric ship" speed="13.89" length="11.34" shape="1475.02,2297.23 1475.24,2300.39 1475.77,2302.84 1476.32,2305.28 1476.58,2308.44"/>
    </edge>
    <edge id=":1742873095_5" function="internal">
        <lane id=":1742873095_5_0" index="0" disallow="tram rail_urban rail rail_electric ship" speed="6.96" length="6.46" shape="1475.02,2297.23 1474.54,2299.70 1473.18,2301.46 1471.62,2302.19"/>
    </edge>
    <edge id=":1742873095_7" function="internal">
        <lane id=":1742873095_7_0" index="0" speed="6.96" length="3.94" shape="1471.62,2302.19 1470.92,2302.51 1467.77,2302.87"/>
    </edge>
    <edge id=":1742873100_0" function="internal">
        <lane id=":1742873100_0_0" index="0" disallow="tram rail_urban rail rail_electric ship" speed="6.50" length="9.03" shape="1475.90,2212.09 1476.23,2214.55 1477.26,2216.31 1479.00,2217.37 1481.45,2217.74"/>
    </edge>
    <edge id=":1742873100_1" function="internal">
        <lane id=":1742873100_1_0" index="0" disallow="tram rail_urban rail rail_electric ship" speed="13.89" length="11.20" shape="1475.90,2212.09 1475.78,2223.29"/>
    </edge>
    <edge id=":1742873100_2" function="internal">
        <lane id=":1742873100_2_0" index="0" disallow="tram rail_urban rail rail_electric ship" speed="13.89" length="11.21" shape="1470.24,2217.62 1481.45,2217.74"/>
    </edge>
    <edge id=":1742873100_3" function="internal">
        <lane id=":1742873100_3_0" index="0" disallow="tram rail_urban rail rail_electric ship" speed="6.52" length="4.29" shape="1470.24,2217.62 1472.68,2218.01 1474.23,2218.96"/>
    </edge>
    <edge id=":1742873100_4" function="internal">
        <lane id=":1742873100_4_0" index="0" speed="6.52" length="4.75" shape="1474.23,2218.96 1474.42,2219.08 1475.46,2220.84 1475.78,2223.29"/>
    </edge>
    <edge id=":1742873101_0" function="internal">
        <lane id=":1742873101_0_0" index="0" disallow="tram rail_urban rail rail_electric ship" speed="13.89" length="5.85" shape="1397.25,2060.65 1397.68,2058.97 1397.89,2057.80 1397.98,2056.61 1398.02,2054.87"/>
    </edge>
    <edge id=":1742873101_1" function="internal">
        <lane id=":1742873101_1_0" index="0" disallow="tram rail_urban rail rail_electric ship" speed="5.54" length="5.05" shape="1397.25,2060.65 1397.75,2059.49 1398.56,2058.66 1399.67,2058.17 1401.08,2058.01"/>
    </edge>
    <edge id=":1742873102_0" function="internal">
        <lane id=":1742873102_0_0" index="0" disallow="tram rail_urban rail rail_electric ship" speed="6.42" length="9.04" shape="1474.58,2385.59 1474.91,2388.06 1475.96,2389.80 1477.72,2390.80 1480.19,2391.08"/>
    </edge>
    <edge id=":1742873102_1" function="internal">
        <lane id=":1742873102_1_0" index="0" disallow="tram rail_urban rail rail_electric ship" speed="13.89" length="11.25" shape="1474.58,2385.59 1474.54,2396.85"/>
    </edge>
    <edge id=":1742873102_2" function="internal">
        <lane id=":1742873102_2_0" index="0" disallow="tram rail_urban rail rail_electric ship" speed="13.89" length="11.26" shape="1468.93,2391.22 1480.19,2391.08"/>
    </edge>
    <edge id=":1742873102_3" function="internal">
        <lane id=":1742873102_3_0" index="0" disallow="tram rail_urban rail rail_electric ship" speed="6.53" length="4.31" shape="1468.93,2391.22 1471.38,2391.59 1472.95,2392.54"/>
    </edge>
    <edge id=":1742873102_4" function="internal">
        <lane id=":1742873102_4_0" index="0" speed="6.53" length="4.73" shape="1472.95,2392.54 1473.13,2392.65 1474.18,2394.40 1474.54,2396.85"/>
    </edge>
    <edge id=":1742873105_0" function="internal">
        <lane id=":1742873105_0_0" index="0" disallow="tram rail_urban rail rail_electric ship" speed="13.89" length="3.51" shape="1476.62,2319.46 1476.38,2320.41 1475.83,2320.97 1475.28,2321.52 1475.04,2322.47"/>
    </edge>
    <edge id=":1742873105_1" function="internal">
        <lane id=":1742873105_1_0" index="0" disallow="tram rail_urban rail rail_electric ship" speed="3.65" length="4.67" shape="1476.62,2319.46 1475.83,2320.67 1475.03,2321.07 1474.23,2320.67 1473.42,2319.48"/>
    </edge>
    <edge id=":1838474911_0" function="internal">
        <lane id=":1838474911_0_0" index="0" disallow="tram rail_urban rail rail_electric ship" speed="9.30" length="17.17" shape="2112.77,2509.29 2111.86,2511.23 2109.06,2513.01 2104.37,2514.61 2097.78,2516.05"/>
    </edge>
    <edge id=":1838474911_1" function="internal">
        <lane id=":1838474911_1_0" index="0" disallow="tram rail_urban rail rail_electric ship" speed="3.65" length="4.67" shape="2097.21,2512.90 2098.53,2513.48 2099.07,2514.19 2098.82,2515.05 2097.78,2516.05"/>
    </edge>
    <edge id=":1863747027_0" function="internal">
        <lane id=":1863747027_0_0" index="0" disallow="tram rail_urban rail rail_electric ship" speed="6.55" length="9.07" shape="1918.50,1689.68 1918.08,1687.22 1916.99,1685.46 1915.23,1684.43 1912.79,1684.11"/>
    </edge>
    <edge id=":1863747027_1" function="internal">
        <lane id=":1863747027_1_0" index="0" disallow="tram rail_urban rail rail_electric ship" speed="13.89" length="11.20" shape="1918.50,1689.68 1918.26,1678.48"/>
    </edge>
    <edge id=":1863747027_2" function="internal">
        <lane id=":1863747027_2_0" index="0" disallow="tram rail_urban rail rail_electric ship" speed="13.89" length="11.20" shape="1923.99,1684.25 1912.79,1684.11"/>
    </edge>
    <edge id=":1863747027_3" function="internal">
        <lane id=":1863747027_3_0" index="0" disallow="tram rail_urban rail rail_electric ship" speed="6.68" length="4.36" shape="1923.99,1684.25 1921.51,1683.81 1919.95,1682.84"/>
    </edge>
    <edge id=":1863747027_4" function="internal">
        <lane id=":1863747027_4_0" index="0" speed="6.68" length="4.81" shape="1919.95,1682.84 1919.73,1682.70 1918.65,1680.92 1918.26,1678.48"/>
    </edge>
    <edge id=":1863747028_0" function="internal">
        <lane id=":1863747028_0_0" index="0" disallow="tram rail_urban rail rail_electric ship" speed="6.59" length="8.85" shape="2007.38,1692.93 2006.99,1690.56 2005.94,1688.83 2004.23,1687.76 2001.86,1687.33"/>
    </edge>
    <edge id=":1863747028_1" function="internal">
        <lane id=":1863747028_1_0" index="0" disallow="tram rail_urban rail rail_electric ship" speed="13.89" length="10.79" shape="2007.38,1692.93 2007.33,1682.14"/>
    </edge>
    <edge id=":1863747028_2" function="internal">
        <lane id=":1863747028_2_0" index="0" disallow="tram rail_urban rail rail_electric ship" speed="13.89" length="10.79" shape="2012.65,1687.54 2001.86,1687.33"/>
    </edge>
    <edge id=":1863747028_3" function="internal">
        <lane id=":1863747028_3_0" index="0" disallow="tram rail_urban rail rail_electric ship" speed="6.36" length="3.95" shape="2012.65,1687.54 2010.30,1687.20 2008.95,1686.39"/>
    </edge>
    <edge id=":1863747028_4" function="internal">
        <lane id=":1863747028_4_0" index="0" speed="6.36" length="4.72" shape="2008.95,1686.39 2008.63,1686.19 2007.64,1684.50 2007.33,1682.14"/>
    </edge>
    <edge id=":1863747030_0" function="internal">
        <lane id=":1863747030_0_0" index="0" disallow="tram rail_urban rail rail_electric ship" speed="6.46" length="8.92" shape="1558.44,1697.28 1557.99,1694.80 1556.91,1693.06 1555.19,1692.07 1552.84,1691.83"/>
    </edge>
    <edge id=":1863747030_1" function="internal">
        <lane id=":1863747030_1_0" index="0" disallow="tram rail_urban rail rail_electric bicycle pedestrian ship" speed="27.78" length="14.51" shape="1558.44,1697.28 1557.87,1682.71"/>
        <lane id=":1863747030_1_1" index="1" disallow="tram rail_urban rail rail_electric bicycle pedestrian ship" speed="27.78" length="14.51" shape="1561.64,1697.13 1561.07,1682.61"/>
        <lane id=":1863747030_1_2" index="2" disallow="tram rail_urban rail rail_electric bicycle pedestrian ship" speed="27.78" length="14.51" shape="1564.84,1696.98 1564.27,1682.51"/>
        <lane id=":1863747030_1_3" index="3" disallow="tram rail_urban rail rail_electric bicycle pedestrian ship" speed="27.78" length="14.51" shape="1568.03,1696.83 1567.47,1682.41"/>
    </edge>
    <edge id=":1863747030_5" function="internal">
        <lane id=":1863747030_5_0" index="0" disallow="tram rail_urban rail rail_electric ship" speed="7.09" length="11.13" shape="1568.03,1696.83 1568.15,1692.96 1568.92,1690.18 1570.35,1688.49 1572.43,1687.89"/>
    </edge>
    <edge id=":1863747030_6" function="internal">
        <lane id=":1863747030_6_0" index="0" disallow="tram rail_urban rail rail_electric ship" speed="13.89" length="19.67" shape="1572.50,1691.09 1552.84,1691.83"/>
    </edge>
    <edge id=":1863747030_7" function="internal">
        <lane id=":1863747030_7_0" index="0" disallow="tram rail_urban rail rail_electric bicycle pedestrian ship" speed="7.17" length="11.14" shape="1572.50,1691.09 1570.40,1690.59 1568.86,1688.97 1567.88,1686.25 1567.47,1682.41"/>
    </edge>
    <edge id=":1863747030_8" function="internal">
        <lane id=":1863747030_8_0" index="0" disallow="tram rail_urban rail rail_electric ship" speed="3.65" length="4.67" shape="1572.50,1691.09 1571.28,1690.31 1570.87,1689.52 1571.25,1688.71 1572.43,1687.89"/>
    </edge>
    <edge id=":1863747030_9" function="internal">
        <lane id=":1863747030_9_0" index="0" disallow="tram rail_urban rail rail_electric bicycle pedestrian ship" speed="6.53" length="8.95" shape="1552.68,1688.64 1555.01,1688.16 1556.66,1687.02 1557.61,1685.20 1557.87,1682.71"/>
    </edge>
    <edge id=":1863747030_10" function="internal">
        <lane id=":1863747030_10_0" index="0" disallow="tram rail_urban rail rail_electric ship" speed="13.89" length="19.77" shape="1552.68,1688.64 1572.43,1687.89"/>
    </edge>
    <edge id=":1863747030_11" function="internal">
        <lane id=":1863747030_11_0" index="0" disallow="tram rail_urban rail rail_electric ship" speed="3.65" length="4.67" shape="1552.68,1688.64 1553.92,1689.37 1554.36,1690.15 1554.00,1690.97 1552.84,1691.83"/>
    </edge>
    <edge id=":1863747031_0" function="internal">
        <lane id=":1863747031_0_0" index="0" disallow="tram rail_urban rail rail_electric ship" speed="27.78" length="11.20" shape="2105.18,1681.77 2105.29,1692.98"/>
        <lane id=":1863747031_0_1" index="1" disallow="tram rail_urban rail rail_electric ship" speed="27.78" length="11.20" shape="2101.98,1681.80 2102.09,1693.01"/>
        <lane id=":1863747031_0_2" index="2" disallow="tram rail_urban rail rail_electric ship" speed="27.78" length="11.20" shape="2098.79,1681.83 2098.89,1693.04"/>
        <lane id=":1863747031_0_3" index="3" disallow="tram rail_urban rail rail_electric ship" speed="27.78" length="11.20" shape="2095.59,1681.86 2095.69,1693.07"/>
        <lane id=":1863747031_0_4" index="4" disallow="tram rail_urban rail rail_electric ship" speed="27.78" length="11.20" shape="2092.39,1681.89 2092.49,1693.10"/>
    </edge>
    <edge id=":1863747031_5" function="internal">
        <lane id=":1863747031_5_0" index="0" disallow="tram rail_urban rail rail_electric ship" speed="6.49" length="9.03" shape="2092.39,1681.89 2092.06,1684.35 2091.02,1686.11 2089.28,1687.16 2086.82,1687.51"/>
    </edge>
    <edge id=":1863747521_0" function="internal">
        <lane id=":1863747521_0_0" index="0" disallow="tram rail_urban rail rail_electric ship" speed="27.78" length="11.22" shape="2106.33,1773.01 2106.47,1784.24"/>
        <lane id=":1863747521_0_1" index="1" disallow="tram rail_urban rail rail_electric ship" speed="27.78" length="11.22" shape="2103.13,1773.05 2103.27,1784.27"/>
        <lane id=":1863747521_0_2" index="2" disallow="tram rail_urban rail rail_electric ship" speed="27.78" length="11.22" shape="2099.93,1773.10 2100.07,1784.31"/>
        <lane id=":1863747521_0_3" index="3" disallow="tram rail_urban rail rail_electric ship" speed="27.78" length="11.22" shape="2096.73,1773.14 2096.87,1784.35"/>
        <lane id=":1863747521_0_4" index="4" disallow="tram rail_urban rail rail_electric ship" speed="27.78" length="11.22" shape="2093.53,1773.18 2093.67,1784.39"/>
    </edge>
    <edge id=":1863747521_5" function="internal">
        <lane id=":1863747521_5_0" index="0" disallow="tram rail_urban rail rail_electric ship" speed="8.11" length="14.56" shape="2087.94,1778.92 2093.22,1779.23 2097.00,1780.23 2099.29,1781.92 2100.07,1784.31"/>
    </edge>
    <edge id=":1863747521_6" function="internal">
        <lane id=":1863747521_6_0" index="0" disallow="tram rail_urban rail rail_electric ship" speed="7.33" length="11.72" shape="2087.94,1778.92 2091.82,1779.24 2094.60,1780.25 2096.29,1781.95 2096.87,1784.35"/>
    </edge>
    <edge id=":1863747521_7" function="internal">
        <lane id=":1863747521_7_0" index="0" disallow="tram rail_urban rail rail_electric ship" speed="6.51" length="9.02" shape="2087.94,1778.92 2090.42,1779.25 2092.20,1780.27 2093.29,1781.98 2093.67,1784.39"/>
    </edge>
    <edge id=":1863747522_0" function="internal">
        <lane id=":1863747522_0_0" index="0" disallow="tram rail_urban rail rail_electric ship" speed="13.89" length="11.27" shape="1652.26,1791.23 1651.97,1779.96"/>
    </edge>
    <edge id=":1863747522_1" function="internal">
        <lane id=":1863747522_1_0" index="0" disallow="tram rail_urban rail rail_electric ship" speed="6.52" length="4.39" shape="1652.26,1791.23 1652.56,1788.78 1653.51,1787.11"/>
    </edge>
    <edge id=":1863747522_4" function="internal">
        <lane id=":1863747522_4_0" index="0" speed="6.52" length="4.64" shape="1653.51,1787.11 1653.57,1787.00 1655.29,1785.90 1657.73,1785.49"/>
    </edge>
    <edge id=":1863747522_2" function="internal">
        <lane id=":1863747522_2_0" index="0" disallow="tram rail_urban rail rail_electric ship" speed="6.40" length="9.04" shape="1646.46,1785.54 1648.93,1785.23 1650.68,1784.20 1651.69,1782.44 1651.97,1779.96"/>
    </edge>
    <edge id=":1863747522_3" function="internal">
        <lane id=":1863747522_3_0" index="0" disallow="tram rail_urban rail rail_electric ship" speed="13.89" length="11.27" shape="1646.46,1785.54 1657.73,1785.49"/>
    </edge>