<?xml version="1.0" encoding="UTF-8"?>

<!-- generated on Thu Mar  5 16:07:50 2020 by Eclipse SUMO duarouter Version 1.2.0
<configuration xmlns:xsi="http://www.w3.org/2001/XMLSchema-instance" xsi:noNamespaceSchemaLocation="http://sumo.dlr.de/xsd/duarouterConfiguration.xsd">

    <input>
        <net-file value="/root/Desktop/SUMO_MAP/sfamilia.net.xml"/>
        <route-files value="trips.trips.xml"/>
    </input>

    <output>
        <output-file value="/root/Desktop/SUMO_MAP/sfamilia.rou.xml"/>
        <alternatives-output value="/root/Desktop/SUMO_MAP/sfamilia.rou.alt.xml"/>
    </output>

    <time>
        <begin value="0"/>
        <end value="500.0"/>
    </time>

    <report>
        <no-warnings value="true"/>
        <ignore-errors value="true"/>
        <no-step-log value="true"/>
    </report>

</configuration>
-->

<routes xmlns:xsi="http://www.w3.org/2001/XMLSchema-instance" xsi:noNamespaceSchemaLocation="http://sumo.dlr.de/xsd/routes_file.xsd">
    <vType id="passenger" vClass="passenger" maxSpeed="13" sigma="1.0"/>
    <vehicle id="0" type="passenger" depart="0.00">
        <route edges="588785692#0 588785692#2 409092666 203850998#0 203850998#2 175192398#0 175192398#1 175192398#3 175192398#4 175192398#5 175192398#6 175192398#7 175192398#8 175192398#9 175192398#10 175192398#11 175192398#12 173019683#12 173019683#13 -173019683#14 -173019683#12 -173019683#11 -173019683#9 -173019683#6 175159732#0 175159732#2 175159732#3 175159732#4 175159732#5 175159732#6 162383069#4 162383069#5 162383069#6 162383069#7 162383069#8 588779830 588785684#0 588785686#0 588785688#0 588785689 588779843#0 161867214#0 161867214#1 148654330#3 588779832 588785686#0 588785688#0 588785690#0 588785691 588779848#0 588779848#2 588779848#3 588779848#4 588779848#5 175159732#12 175159732#13 275146169#8 27347923#23 27347923#26 27347923#28 27347923#29 27347923#30 27347923#31 27347923#34 27347923#35 27347923#36 27347923#38 27347923#40 27347923#42 27347923#45 173019683#3 173019683#5 173019683#7 173019683#10 173019683#12 173019683#13 437241386#0 588785674#0 588785677#0 409094354 -409094354 588785678#0 588785680#0 588785682#0 588785684#0 588785686#0 -588779836 588779837#0 -588785689 588785690#0 588785692#0 588785692#2 409092666 203850998#0 203850998#2 175192398#0 175192398#1 175192398#3 148654325#6 148654325#7 588779840 588785689 -588785689 588785689 588779843#0 161867214#0 161867214#1 161867214#4 588779828#2 41864573#7 41864573#8 175826970#1 175820013#0 175820013#1 175819770#1 175819770#2 588779844 588785691 588779848#0 588779848#2 175192398#3 175192398#4 175192398#5 175192398#6 175192398#7 175192398#8 175192398#9 175192398#10 175192398#11 148654333#5 148654333#6 588779809#0"/>
    </vehicle>
    <vehicle id="1" type="passenger" depart="0.00">
        <route edges="175158223#15 175158223#16 162383069#6 162383069#7 162383069#8 588779830 588785684#0 -588779832 588779832 588785686#0 588785688#0 588785690#0 588785691 588779848#0 588779848#2 175192398#3 148654325#6 148654325#7 588779840 588785689 588779843#0 161867214#0 175826970#3 588779836 588785688#0 588785690#0 588785692#0 588785692#2 409092666 203850998#0 203850998#2 275146169#0 275146169#2 275146169#5 275146169#8 27347923#23 27347923#26 27347923#28 27347923#29 27347923#30 27347923#31 162383069#2 162383069#4 162383069#5 162383069#6 162383069#7 162383069#8 588779830 588785683 -588785683 588785684#0 588785685 588779835#0 588779835#2 588779835#3 175158223#16 175158223#17 175158223#18 148654311#6 148654311#7 148654311#8 588779820 588785679 588779823#0 588779823#2 41864573#5 41864573#6 41864573#7 148654330#1 161867214#4 161867214#5 148654307#2 588779824 -588779824 588779824 588785681 588779827#0 175834076#7 175834076#8 588779835#2 175192398#6 175192398#7 175192398#8 175192398#9 175192398#10 175192398#11 175192398#12 173019683#12 173019683#13 -416087816#4 -416087816#2 41864573#0 41864573#2 41864573#3 41864573#4 41864573#5 148654307#1 148654307#2 588779824 588785681 588779827#0 588779827#2 175192398#8 175192398#9"/>
    </vehicle>
    <vehicle id="2" type="passenger" depart="0.00">
        <route edges="175159732#13 -275146169#7 -275146169#4 -275146169#1 175192398#0 175192398#1 175192398#3 148654325#6 148654325#7 588779840 588785689 588779843#0 588779843#2 175820013#1 175819770#1 148657764 161867214#0 161867214#1 161867214#4 161867214#5 162383075 44094951 162383074#0 162383074#1 126631858#2 588779812 588785677#0 588785678#0 588785680#0 588785682#0 588785684#0 588785686#0 588785688#0 588785689 588779843#0 588779843#2 175820013#1 175820013#2 175820013#3 148650727#13 148650727#14 409092664 409092666 203850998#0 203850998#2 275146169#0 275146169#2 275146169#5 275146169#8 27347923#23 27347923#26 27347923#28 27347923#29 27347923#30 27347923#31 27347923#34 27347923#35 27347923#36 27347923#38 27347923#40 27347923#42 27347923#45 173019683#3 173019683#5 173019683#7 173019683#10 173019683#12 173019683#13 437241386#0 588785674#0 588785677#0 588785678#0 588785680#0 588785682#0 588785684#0 588785686#0 588785688#0 588785690#0 588785692#0 588785692#2 -409092664 -148650727#15 148650727#14 409092664 409092666 203850998#0 203850998#2 275146169#0 275146169#2 275146169#5 275146169#8 27347923#23 27347923#26 27347923#28 27347923#29 27347923#30 27347923#31 27347923#34 27347923#35 27347923#36 27347923#38 27347923#40 27347923#42 27347923#45 173019683#3 173019683#5 173019683#7 173019683#10 173019683#12 173019683#13 -416087816#4 -416087816#2 41864573#0 41864573#2 126631858#1 126631858#2 588779812 588785677#0 588785678#0 588785680#0 588785682#0 588785684#0 588785686#0 588785687 588779839#0 588779839#2 588779839#3 588779839#4 175192121#11 148654325#4 148654325#5 148654325#6 148654325#7 588779840 588785690#0 -588779844 588779844 588785691 588779848#0 588779848#2 175192398#3 148654325#6 148654325#7 588779840 588785689 588779843#0 588779843#2 175820013#1 175819770#1 148657764 161867214#0 175826970#3 588779836 588785688#0 588785690#0 588785691 588779848#0 588779848#2 175192398#3 148654325#6"/>
    </vehicle>
    <vehicle id="3" type="passenger" depart="0.00">
        <route edges="148654325#3 148654325#4 175158223#14 175158223#15 175158223#16 162383069#6 162383069#7 162383069#8 588779831#0 -588785685 588785686#0 588785688#0 588785689 588779843#0 161867214#0 161867214#1 161867214#4 161867214#5 162383075 44094951 162383074#0 232656955#2 588779818 409094354 588779817#0 588779820 588785680#0 588785682#0 588785684#0 588785686#0 588785688#0 588785689 588779843#0 161867214#0 161867214#1 161867214#4 161867214#5 162383075 44094951 162383074#0 232656955#2 588779818 588785678#0 588785680#0 588785681 588779827#0 588779827#2 588779827#3 588779827#4 588779827#5 175159732#6 175159732#7 175159732#9 175159732#10 148654325#3 148654325#4 148654325#5 148654325#6 148654325#7 588779840 588785689 588779843#0 161867214#0 161867214#1 161867214#4 161867214#5 148654307#2 588779824 588785682#0 588785684#0 588785686#0 588785688#0 588785690#0 588785691 588779848#0 175834076#12 175834076#13 203850998#2 275146169#0 175158223#9 175158223#11 175158223#13 175158223#14 175158223#15 175158223#16 175158223#17 175158223#18 175158223#19 175158223#20 588779815#4 175192121#5 175192121#6 175192121#7 175192121#8 175192121#9 175192121#10 175192121#11 175192121#12 175192121#13 175192121#14 -275146169#4 -275146169#1 175192398#0 175192398#1 175192398#3 175192398#4 175192398#5 175192398#6 162383069#7 162383069#8"/>
    </vehicle>
    <vehicle id="4" type="passenger" depart="0.00">
        <route edges="409092668#9 -409092669 588785692#2 409092666 203850998#0 203850998#2 175192398#0 175192398#1 175192398#3 175192398#4 175192398#5 175192398#6 175192398#7 175192398#8 148654311#7 148654311#8 588779820 588785679 588779823#0 588779823#2 41864573#5 41864573#6 41864573#7 148654330#1 148654330#3 588779832 588785686#0 588785688#0 588785690#0 588785692#0 588785692#2 409092666 203850998#0 203850998#2 275146169#0 275146169#2 275146169#5 275146169#8 27347923#23 27347923#26 27347923#28 27347923#29 27347923#30 27347923#31 27347923#34 27347923#35 27347923#36 27347923#38 27347923#40 27347923#42 27347923#45 173019683#3 173019683#5 173019683#7 173019683#10 173019683#12 173019683#13 437241386#0 588785674#0 588785677#0 409094354 588779816#0 175834076#5 175834076#6 588779827#2 175192398#8 175192398#9 175192398#10 175192398#11 175192398#12 173019683#12 173019683#13 -173019683#14 -173019683#12 -173019683#11 -173019683#9 -173019683#6 175159732#0 175159732#2 175159732#3 175159732#4 175159732#5 175159732#6 162383069#4 162383069#5 162383069#6 162383069#7 162383069#8 588779830 -588779830 588779831#0 588779835#0 588779835#2 175192398#6 162383069#7 162383069#8 588779830 588785684#0 588785686#0 588785688#0 588785689 588779843#0 588779843#2 175820013#1 175819770#1 148657764 161867214#0 161867214#1 161867214#4 161867214#5 148654307#2 588779824 588785681 588779827#0 588779827#2 588779827#3 588779827#4 588779827#5 175159732#6 175159732#7 588779835#6 27347923#31 27347923#34 27347923#35 27347923#36 27347923#38 27347923#40 27347923#42 27347923#45 173019683#3 173019683#5 173019683#7 173019683#10 173019683#12 173019683#13 437241386#0 588785674#0 588785677#0 588785678#0 588785680#0 588785682#0 588785684#0 588785685 588779835#0 588779835#2 175192398#6 175192398#7"/>
    </vehicle>
    <vehicle id="5" type="passenger" depart="0.00">
        <route edges="588785678#0 588785679 -588785679 588785680#0 588785682#0 588785684#0 588785686#0 588785688#0 588785690#0 588785691 588779848#0 588779848#2 175192398#3 175192398#4 175192398#5 175192398#6 175192398#7 175192398#8 148654311#7 148654311#8 588779820 588785679 -588785679 588785680#0 588785682#0 588785684#0 588785686#0 588785688#0 588785690#0 -588779844 588779845#0 175819736 588785692#2 409092666 203850998#0 203850998#2 275146169#0 275146169#2 275146169#5 275146169#8 27347923#23 27347923#26 27347923#28 27347923#29 27347923#30 27347923#31 27347923#34 27347923#35 27347923#36 148654311#2 175159732#5 175159732#6 162383069#4 162383069#5 162383069#6 162383069#7 162383069#8 588779830 588785684#0 588785686#0 588785688#0 588785689 -588785689 588785689 588779843#0 161867214#0 161867214#1 161867214#4 161867214#5 162383075 44094951 162383074#0 162383074#1 162383074#2 588779811#3 41864573#2 41864573#3 232656955#1 232656955#2 588779818 588785678#0 588785680#0 588785682#0 588785684#0 588785686#0 588785688#0 588785690#0 588785691 588779848#0 588779848#2 588779848#3 588779848#4 588779848#5 588779848#6 27347923#28 27347923#29 27347923#30 27347923#31 27347923#34 27347923#35 27347923#36 27347923#38 27347923#40 27347923#42 27347923#45 173019683#3 173019683#5 173019683#7 173019683#10 173019683#12 173019683#13 437241386#0 588785675 588779811#0 41864569#0 -416087816#2 416087816#2 416087816#3 437241386#0 588785674#0 588785677#0 588785678#0 588785680#0 588785682#0 588785684#0 588785686#0 588785687 588779839#0 588779839#2 588779839#3 588779839#4 175192121#11 148654325#4"/>
    </vehicle>
    <vehicle id="6" type="passenger" depart="0.00">
        <route edges="588779843#0 161867214#0 161867214#1 161867214#4 161867214#5 148654307#2 588779824 588785681 588779827#0 588779827#2 588779827#3 588779827#4 175192121#8 162383069#5 162383069#6 162383069#7 162383069#8 588779830 588785684#0 588785686#0 588785688#0 588785690#0 588785692#0 588785692#2 409092666 203850998#0 203850998#2 275146169#0 275146169#2 275146169#5 275146169#8 27347923#23 27347923#26 27347923#28 27347923#29 27347923#30 27347923#31 27347923#34 27347923#35 27347923#36 27347923#38 27347923#40 27347923#42 27347923#45 173019683#3 173019683#5 173019683#7 173019683#10 173019683#12 173019683#13 437241386#0 588785674#0 588785677#0 409094354 588779817#0 588779820 588785680#0 588785681 588779827#0 588779827#2 175192398#8 175192398#9 175192398#10 175192398#11 175192398#12 -173019683#11 -173019683#9 -173019683#6 173019683#5 173019683#7 173019683#10 173019683#12 173019683#13 437241386#0 588785674#0 588785677#0 588785678#0 588785680#0 588785682#0 588785683 588779828#0 161867214#5 148654307#2 588779824 588785681 588779827#0 588779827#2 588779827#3 588779827#4 588779827#5 175159732#6 175159732#7 175159732#9 588779839#6 27347923#30 27347923#31 27347923#34 27347923#35 27347923#36 27347923#38 27347923#40 27347923#42 27347923#45 173019683#3 173019683#5 173019683#7 173019683#10 173019683#12 173019683#13 -416087816#4 -416087816#2 41864573#0 41864573#2 41864573#3 41864573#4 41864573#5 148654307#1 148654307#2 588779824 588785682#0 588785684#0 588785686#0 588785687 588779839#0 588779839#2 588779839#3 588779839#4 588779839#5 588779839#6 27347923#30 27347923#31 27347923#34 27347923#35 27347923#36 27347923#38 27347923#40 27347923#42 27347923#45 173019683#3 173019683#5 173019683#7 173019683#10 173019683#12 175834076#0 175834076#3 175834076#4 175834076#5 175834076#6"/>
    </vehicle>
    <vehicle id="7" type="passenger" depart="0.00">
        <route edges="588785685 588779835#0 588779835#2 175192398#6 175192398#7 175192398#8 175192398#9 175192398#10 175192398#11 148654333#5 148654333#6 588779809#0 -588785676 588785677#0 588785678#0 588785680#0 588785682#0 588785683 588779828#0 161867214#5 148654307#2 588779824 -588779824 588779824 588785682#0 588785684#0 588785686#0 -588779836 588779836 588785688#0 588785690#0 588785692#0 588785692#2 409092666 203850998#0 203850998#2 175192398#0 409092668#8 175834076#13 203850998#2 175192398#0 175192398#1 175192398#3 148654325#6 148654325#7 588779840 -588779840 588779841#0 588779848#0 588779848#2 175192398#3 175192398#4 175192398#5 175192398#6 162383069#7 162383069#8 588779830 588785683 588779828#0 161867214#5 162383075 44094951 162383074#0 162383074#1 162383074#2 588779811#3 41864573#2 126631858#1 126631858#2 588779812 588785676 588779815#0 588779815#2 588779815#3 175158223#21 148654333#4 148654333#5 148654333#6 588779808 588785674#0 588785677#0 588785678#0 588785680#0 588785682#0 588785684#0 588785685 -588785685 588785685 588779835#0 588779835#2 175192398#6 175192398#7 175192398#8 148654311#7 148654311#8"/>
    </vehicle>
    <vehicle id="8" type="passenger" depart="0.00">
        <route edges="588779813#0 588779819#0 588779823#0 588779823#2 41864573#5 41864573#6 41864573#7 148654330#1 161867214#4 161867214#5 148654307#2 588779825#0 588779829#0 588779832 588785686#0 588785688#0 588785689 588779843#0 161867214#0 161867214#1 161867214#4 161867214#5 162383075 44094951 162383074#0 162383074#1 126631858#2 588779812 588785676 588779815#0 588779815#2 175192398#11 175192398#12 -173019683#11 173019683#10 173019683#12 173019683#13 437241386#0 588785674#0 588785677#0 588785678#0 588785680#0 588785682#0 588785684#0 588785686#0 588785688#0 -588779840 588779840 588785690#0 588785691 588779848#0 588779848#2 175192398#3 175192398#4 175192398#5 588779835#3 588779835#4 588779835#5 588779835#6 27347923#31 162383069#2 175159732#7 175159732#9 175159732#10 175159732#11 175159732#12 175159732#13 275146169#8 27347923#23 27347923#26 27347923#28 148654325#1 148654325#3 148654325#4 148654325#5 175192398#4 588779839#3 175158223#15 175158223#16 162383069#6 162383069#7 162383069#8 588779830 588785683 588779828#0 161867214#5 162383075 44094951 162383074#0 162383074#1 126631858#2 588779812 588785676 588779815#0 588779815#2 175192398#11 175192398#12 173019683#12 -173019683#12"/>
    </vehicle>
    <vehicle id="9" type="passenger" depart="0.00">
        <route edges="148654325#7 588779840 588785689 588779843#0 161867214#0 161867214#1 161867214#4 161867214#5 148654307#2 588779824 588785682#0 -588779830 588779831#0 588779835#0 588779835#2 175192398#6 175192398#7 175192398#8 175192398#9 175192398#10 175192398#11 175192398#12 173019683#12 173019683#13 -416087816#4 416087816#3 -173019683#14 -173019683#12 -173019683#11 -173019683#9 -173019683#6 175159732#0 175159732#2 175159732#3 175159732#4 148654311#4 148654311#5 148654311#6 148654311#7 148654311#8 588779820 588785680#0 588785682#0 588785684#0 588785686#0 588785688#0 588785689 588779843#0 161867214#0 161867214#1 161867214#4 161867214#5 162383075 44094951 162383074#0 162383074#1 126631858#2 588779813#0 588779818 409094354 588779816#0 588779816#2 175192398#10 175192398#11 175192398#12 -173019683#11 173019683#10 173019683#12 173019683#13 437241386#0 588785674#0 588785677#0 588785678#0 588785680#0 588785682#0 588785684#0 588785686#0 588785688#0 588785689 588779843#0 161867214#0 175826970#3 588779836 588785687 588779839#0 588779839#2 175192398#5 588779835#3 175158223#16 162383069#6 162383069#7 162383069#8 588779830 588785684#0 588785686#0 588785687 588779838#0 588779840 588785690#0 588785691 588779848#0 588779848#2 175192398#3 175192398#4 175192398#5 175192398#6 175192398#7 588779827#3 588779827#4 588779827#5 175159732#6"/>
    </vehicle>
    <vehicle id="10" type="passenger" depart="0.00">
        <route edges="175192121#11 148654325#4 175158223#14 175158223#15 175158223#16 175158223#17 175158223#18 148654311#6 148654311#7 148654311#8 588779820 588785680#0 -588779824 588779825#0 588779828#0 161867214#5 162383075 44094951 162383074#0 162383074#1 126631858#2 588779812 -588779812 588779812 588785677#0 588785678#0 588785680#0 588785682#0 588785684#0 588785686#0 588785688#0 588785690#0 588785692#0 588785692#2 409092666 203850998#0 203850998#2 275146169#0 275146169#2 275146169#5 275146169#8 27347923#23 409092668#1 175159732#13 -275146169#7 -275146169#4 -275146169#1 275146169#0 275146169#2 275146169#5 275146169#8 27347923#23 27347923#26 27347923#28 27347923#29 27347923#30 27347923#31 27347923#34 27347923#35 27347923#36 27347923#38 27347923#40 27347923#42 27347923#45 173019683#3 173019683#5 173019683#7 173019683#10 173019683#12 173019683#13 437241386#0 588785674#0 588785676 588779815#0 588779815#2 175192398#11 148654333#5 148654333#6 588779808 588785674#0 588785677#0 588785678#0 588785680#0 588785682#0 588785684#0 588785686#0 588785688#0 588785689 588779843#0 588779843#2 175820013#1 175820013#2 175820013#3 148650727#13 148650727#14 409092664 409092666 203850998#0 203850998#2 175192398#0 175192398#1 175192398#3 175192398#4 175192398#5 175192398#6 162383069#7 162383069#8 588779830 588785683 588779828#0 161867214#5 148654307#2 588779824 588785682#0 588785684#0 588785686#0 588785688#0 588785690#0 588785692#0 588785692#2 409092666 203850998#0 203850998#2 275146169#0 275146169#2 275146169#5 275146169#8 27347923#23 27347923#26 27347923#28 27347923#29 27347923#30 27347923#31 27347923#34 27347923#35 27347923#36 27347923#38 27347923#40 27347923#42 27347923#45 173019683#3 173019683#5 173019683#7 173019683#10 173019683#12 173019683#13 437241386#0 -588779808"/>
    </vehicle>
    <vehicle id="11" type="passenger" depart="0.00">
        <route edges="275146169#2 -275146169#4 175158223#9 175158223#11 175158223#13 175158223#14 175158223#15 175158223#16 175158223#17 588779827#4 175192121#8 175192121#9 175192121#10 175192121#11 175192121#12 588779848#5 588779848#6 27347923#28 148654325#1 148654325#3 148654325#4 148654325#5 148654325#6 175834076#11 588779848#2 175192398#3 175192398#4 175192398#5 175192398#6 175192398#7 175192398#8 175192398#9 588779816#3 588779816#4 175192121#6 175192121#7 175192121#8 175192121#9 175192121#10 588779839#5 588779839#6 27347923#30 27347923#31 27347923#34 27347923#35 27347923#36 27347923#38 27347923#40 27347923#42 27347923#45 173019683#3 173019683#5 173019683#7 173019683#10 173019683#12 173019683#13 -416087816#4 -416087816#2 41864573#0 41864573#2 126631858#1 126631858#2 588779812 588785677#0 588785678#0 588785680#0 588785682#0 588785684#0 588785686#0 588785687 588779839#0 588779839#2 588779839#3 588779839#4 588779839#5 175159732#10 148654325#3 148654325#4 175158223#14 175158223#15 175158223#16 175158223#17 175158223#18 175158223#19 588779816#4 588779816#5 588779816#6 27347923#40 27347923#42 148654333#0 175159732#2 175159732#3 175159732#4 175159732#5 175159732#6 162383069#4 162383069#5 175158223#17 175158223#18 148654311#6 148654311#7 148654311#8 588779820 588785679 588779823#0 44094951 162383074#0 232656955#2 588779818 588785678#0 588785680#0 588785682#0 588785684#0 588785686#0 588785688#0 588785689 588779842#0"/>
    </vehicle>
    <vehicle id="12" type="passenger" depart="0.00">
        <route edges="175158223#11 175158223#13 148654325#5 148654325#6 148654325#7 588779840 588785689 588779843#0 588779843#2 175820013#1 175819770#1 148657764 161867214#0 161867214#1 161867214#4 588779828#2 41864573#7 41864573#8 175826970#1 175826970#2 175826970#3 588779836 588785688#0 588785690#0 588785692#0 409092669 588779847#2 203850998#0 203850998#2 175192398#0 175192398#1 175192398#3 175192398#4 175192398#5 175192398#6 175192398#7 588779827#3 588779827#4 175192121#8 162383069#5 162383069#6 162383069#7 175834076#8 175834076#9 175834076#10 148654325#7 588779840 588785689 588779843#0 161867214#0 161867214#1 161867214#4 161867214#5 148654307#2 588779824 588785681 588779827#0 588779827#2 588779827#3 588779827#4 588779827#5 175159732#6 175159732#7 588779835#6 27347923#31 162383069#2 162383069#4 162383069#5 162383069#6 162383069#7 162383069#8 588779830 588785683 588779828#0 161867214#5 162383075 588779823#2 41864573#5 41864573#6"/>
    </vehicle>
    <vehicle id="13" type="passenger" depart="0.00">
        <route edges="588779811#2 588779811#3 41864573#2 126631858#1 126631858#2 588779812 588785677#0 588785678#0 588785680#0 588785682#0 588785684#0 588785686#0 588785688#0 588785689 588779842#0 588779844 588785691 588779848#0 588779848#2 175192398#3 175192398#4 175192398#5 175192398#6 175192398#7 175192398#8 148654311#7 148654311#8 588779820 588785679 588779823#0 588779823#2 41864573#5 41864573#6 41864573#7 41864573#8 175826970#1 175826970#2 175826970#3 588779836 588785688#0 588785690#0 588785691 588779848#0 588779848#2 175192398#3 175192398#4 175192398#5 175192398#6 175192398#7 175192398#8 175192398#9 175192398#10 175192398#11 148654333#5 148654333#6 588779808 588785674#0 588785677#0 409094354 588779816#0 175834076#5 148654311#8 588779820 588785679 588779823#0 44094951 162383074#0 162383074#1 162383074#2 588779811#3 41864573#2 41864573#3 232656955#1 232656955#2 588779818 588785678#0 588785680#0 588785681 588779827#0 175834076#7 162383069#8 588779830 588785684#0 588785686#0 588785688#0 588785690#0 588785691 588779848#0 588779848#2 175192398#3 175192398#4 175192398#5 175192398#6 175192398#7 175192398#8 175192398#9 175192398#10 588779815#3 588779815#4 588779815#5 588779815#6 27347923#42 27347923#45 173019683#3 175159732#0 148654333#2 148654333#3 148654333#4 148654333#5 148654333#6 588779808 588785675 588779811#0 588779811#2"/>
    </vehicle>
    <vehicle id="14" type="passenger" depart="0.00">
        <route edges="41864573#0 41864573#2 126631858#1 126631858#2 588779812 588785677#0 588785678#0 588785680#0 588785682#0 588785684#0 588785685 588779835#0 588779835#2 588779835#3 588779835#4 588779835#5 588779835#6 27347923#31 27347923#34 27347923#35 27347923#36 27347923#38 27347923#40 27347923#42 27347923#45 173019683#3 173019683#5 173019683#7 173019683#10 173019683#12 173019683#13 335757533#0 -588785675 588785674#0 588785677#0 588785678#0 588785679 588779823#0 588779823#2 41864573#5 41864573#6 41864573#7 148654330#1 161867214#4 161867214#5 162383075 44094951 162383074#0 162383074#1 126631858#2 588779812 588785676 588779815#0 588779815#2 588779815#3 588779815#4 588779815#5 588779815#6 27347923#42 27347923#45 173019683#3 173019683#5 173019683#7 173019683#10 173019683#12 173019683#13 437241386#0 588785674#0 588785677#0 588785678#0 588785680#0 588785681 588779827#0 588779827#2 588779827#3 588779827#4 175192121#8 162383069#5 162383069#6 162383069#7 162383069#8 588779830 588785684#0 588785686#0 588785688#0 588785690#0 588785692#0 588785692#2 409092666 203850998#0 203850998#2 275146169#0 275146169#2 275146169#5 275146169#8 27347923#23 27347923#26 27347923#28 27347923#29 27347923#30 27347923#31 27347923#34 27347923#35 27347923#36 27347923#38 27347923#40 27347923#42 27347923#45 173019683#3 173019683#5 173019683#7 173019683#10 -173019683#11 173019683#10 173019683#12 173019683#13 437241386#0 588785674#0 588785676 588779815#0 175834076#4 175834076#5 148654311#8 588779820 588785680#0 588785682#0 588785683 588779828#0 588779828#2 41864573#7 41864573#8 175826970#1 175820013#0 175820013#1 175819770#1 148657764 161867214#0 161867214#1 161867214#4 161867214#5 148654307#2 588779824 588785682#0 588785683"/>
    </vehicle>
    <vehicle id="15" type="passenger" depart="0.00">
        <route edges="588779828#2 41864573#7 148654330#1 161867214#4 161867214#5 162383075 44094951 162383074#0 232656955#2 588779818 588785678#0 588785680#0 588785682#0 588785684#0 588785685 588779835#0 588779835#2 175192398#6 175192398#7 175192398#8 175192398#9 175192398#10 175192398#11 175192398#12 173019683#12 173019683#13 -416087816#4 416087816#3 437241386#0 588785674#0 588785677#0 588785678#0 588785680#0 588785682#0 588785684#0 588785686#0 588785687 588779839#0 588779839#2 588779839#3 588779839#4 175192121#11 148654325#4 175158223#14 175158223#15 175158223#16 162383069#6 162383069#7 162383069#8 588779830 588785683 588779828#0 161867214#5 162383075 44094951 162383074#0 162383074#1 162383074#2 588779811#3 41864573#2 126631858#1 126631858#2 588779812 588785677#0 409094354 588779816#0 175834076#5 148654311#8 588779820 588785680#0 588785682#0 588785684#0 588785686#0 588785688#0 588785689 -588785689 588785690#0 588785691 588779848#0 588779848#2 175192398#3 175192398#4 175192398#5 588779835#3 588779835#4 588779835#5 588779835#6 27347923#31 27347923#34 27347923#35 27347923#36 148654311#2 148654311#4 175192121#7 588779827#5 175159732#6 162383069#4 162383069#5 162383069#6 162383069#7 162383069#8 588779830 588785684#0 588785685 588779835#0"/>
    </vehicle>
    <vehicle id="16" type="passenger" depart="0.00">
        <route edges="175192398#10 175192398#11 148654333#5 148654333#6 588779808 588785674#0 588785677#0 588785678#0 588785679 588779823#0 44094951 162383074#0 232656955#2 588779818 588785678#0 588785680#0 588785682#0 588785684#0 588785685 588779835#0 588779835#2 588779835#3 588779835#4 588779835#5 175159732#9 588779839#6 27347923#30 27347923#31 27347923#34 27347923#35 27347923#36 148654311#2 148654311#4 148654311#5 148654311#6 148654311#7 148654311#8 588779820 588785679 588779823#0 44094951 162383074#0 162383074#1 162383074#2 588779811#3 41864573#2 126631858#1 126631858#2 588779812 588785677#0 588785678#0 588785680#0 588785682#0 588785684#0 588785685 588779835#0 588779835#2 588779835#3 588779835#4 588779835#5 588779835#6 27347923#31 27347923#34 27347923#35 27347923#36 27347923#38 27347923#40 27347923#42 27347923#45 173019683#3 173019683#5 173019683#7 173019683#10 173019683#12 173019683#13 437241386#0 588785674#0 588785677#0 409094354 588779816#0 588779816#2 175192398#10 175192398#11 148654333#5 148654333#6 588779808 588785674#0 588785677#0 588785678#0 588785680#0 588785682#0 588785684#0 588785686#0 588785688#0 588785689 588779843#0 588779843#2 175820013#1 175820013#2 175820013#3 148650727#13 148650727#14 409092664 409092666 203850998#0 203850998#2 175192398#0 175192398#1 175192398#3 175192398#4 175192398#5 175192398#6 175192398#7 175192398#8 148654311#7 148654311#8 588779820 588785679 588779823#0 588779823#2 41864573#5 148654307#1 148654307#2 588779824 588785681 588779827#0 588779827#2 175192398#8 175192398#9 175192398#10 175192398#11 175192398#12 -173019683#11 -173019683#9 173019683#7 173019683#10 173019683#12 173019683#13 437241386#0 588785674#0 588785677#0 588785678#0 588785680#0 588785682#0 588785684#0 588785686#0 588785688#0 588785690#0 588785692#0 588785692#2 409092666 203850998#0 203850998#2 275146169#0 275146169#2 275146169#5 275146169#8 27347923#23 27347923#26 27347923#28 27347923#29 27347923#30 27347923#31 27347923#34 27347923#35 27347923#36 148654311#2 148654311#4 148654311#5 148654311#6 148654311#7 148654311#8 588779820 588785679 588779823#0 44094951 162383074#0 232656955#2 588779818"/>
    </vehicle>
    <vehicle id="17" type="passenger" depart="0.00">
        <route edges="275146169#5 275146169#8 27347923#23 27347923#26 27347923#28 27347923#29 27347923#30 27347923#31 162383069#2 175159732#7 588779835#6 27347923#31 162383069#2 162383069#4 162383069#5 162383069#6 162383069#7 162383069#8 588779830 588785684#0 588785686#0 588785688#0 588785690#0 -588779844 588779844 588785692#0 588785692#2 409092666 203850998#0 203850998#2 275146169#0 275146169#2 275146169#5 275146169#8 27347923#23 27347923#26 27347923#28 27347923#29 27347923#30 27347923#31 162383069#2 175159732#7 175159732#9 175159732#10 175159732#11 588779848#6 27347923#28 148654325#1 148654325#3 148654325#4 148654325#5 148654325#6 148654325#7 588779840 588785689 588779842#0 588779844 588785691 588779848#0 588779848#2 175192398#3 148654325#6 148654325#7 588779840 588785689 588779843#0 161867214#0 161867214#1 161867214#4 161867214#5 148654307#2 588779824 588785681 588779827#0 588779827#2 588779827#3 588779827#4 588779827#5 175159732#6 175159732#7 588779835#6 27347923#31 27347923#34 27347923#35 27347923#36 27347923#38 27347923#40 27347923#42 27347923#45 173019683#3 173019683#5 173019683#7 173019683#10 173019683#12 173019683#13 437241386#0 588785674#0 588785677#0 588785678#0 588785680#0 588785682#0 588785684#0 588785686#0 588785687 588779839#0 588779839#2 588779839#3 175158223#15 175158223#16 175158223#17 175158223#18 148654311#6 148654311#7 148654311#8 588779820 588785680#0 588785681 588779827#0 588779827#2 588779827#3 588779827#4 588779827#5 588779827#6 27347923#36 27347923#38"/>
    </vehicle>
    <vehicle id="18" type="passenger" depart="0.00">